# generated using pymatgen
data_Zn3H55C65N5O14
_symmetry_space_group_name_H-M   'P 1'
_cell_length_a   15.81000000
_cell_length_b   26.42200000
_cell_length_c   22.80490000
_cell_angle_alpha   90.00000000
_cell_angle_beta   133.89000000
_cell_angle_gamma   90.00000000
_symmetry_Int_Tables_number   1
_chemical_formula_structural   Zn3H55C65N5O14
_chemical_formula_sum   'Zn12 H220 C260 N20 O56'
_cell_volume   6865.36217403
_cell_formula_units_Z   4
loop_
 _symmetry_equiv_pos_site_id
 _symmetry_equiv_pos_as_xyz
  1  'x, y, z'
loop_
 _atom_site_type_symbol
 _atom_site_label
 _atom_site_symmetry_multiplicity
 _atom_site_fract_x
 _atom_site_fract_y
 _atom_site_fract_z
 _atom_site_occupancy
  Zn  Zn1  1  0.61028000  0.12509000  0.24924000  1.0
  Zn  Zn2  1  0.38972000  0.62509000  0.25076000  1.0
  Zn  Zn3  1  0.38972000  0.87491000  0.75076000  1.0
  Zn  Zn4  1  0.61028000  0.37491000  0.74924000  1.0
  Zn  Zn5  1  0.82368000  0.36058000  0.74643000  1.0
  Zn  Zn6  1  0.17632000  0.86058000  0.75357000  1.0
  Zn  Zn7  1  0.17632000  0.63942000  0.25357000  1.0
  Zn  Zn8  1  0.82368000  0.13942000  0.24643000  1.0
  Zn  Zn9  1  0.70214000  0.24522000  0.25052000  1.0
  Zn  Zn10  1  0.29786000  0.74522000  0.24948000  1.0
  Zn  Zn11  1  0.29786000  0.75478000  0.74948000  1.0
  Zn  Zn12  1  0.70214000  0.25478000  0.75052000  1.0
  H  H1  1  0.37980000  0.14870000  0.01470000  1.0
  H  H2  1  0.62020000  0.64870000  0.48530000  1.0
  H  H3  1  0.62020000  0.85130000  0.98530000  1.0
  H  H4  1  0.37980000  0.35130000  0.51470000  1.0
  H  H5  1  0.26590000  0.11510000  0.88620000  1.0
  H  H6  1  0.73410000  0.61510000  0.61380000  1.0
  H  H7  1  0.73410000  0.88490000  0.11380000  1.0
  H  H8  1  0.26590000  0.38490000  0.38620000  1.0
  H  H9  1  0.07190000  0.14090000  0.77860000  1.0
  H  H10  1  0.92810000  0.64090000  0.72140000  1.0
  H  H11  1  0.92810000  0.85910000  0.22140000  1.0
  H  H12  1  0.07190000  0.35910000  0.27860000  1.0
  H  H13  1  0.98850000  0.20180000  0.79820000  1.0
  H  H14  1  0.01150000  0.70180000  0.70180000  1.0
  H  H15  1  0.01150000  0.79820000  0.20180000  1.0
  H  H16  1  0.98850000  0.29820000  0.29820000  1.0
  H  H17  1  0.03580000  0.33180000  0.97730000  1.0
  H  H18  1  0.96420000  0.83180000  0.52270000  1.0
  H  H19  1  0.96420000  0.66820000  0.02270000  1.0
  H  H20  1  0.03580000  0.16820000  0.47730000  1.0
  H  H21  1  0.15080000  0.36920000  0.10240000  1.0
  H  H22  1  0.84920000  0.86920000  0.39760000  1.0
  H  H23  1  0.84920000  0.63080000  0.89760000  1.0
  H  H24  1  0.15080000  0.13080000  0.60240000  1.0
  H  H25  1  0.34150000  0.34110000  0.21180000  1.0
  H  H26  1  0.65850000  0.84110000  0.28820000  1.0
  H  H27  1  0.65850000  0.65890000  0.78820000  1.0
  H  H28  1  0.34150000  0.15890000  0.71180000  1.0
  H  H29  1  0.42330000  0.27760000  0.19480000  1.0
  H  H30  1  0.57670000  0.77760000  0.30520000  1.0
  H  H31  1  0.57670000  0.72240000  0.80520000  1.0
  H  H32  1  0.42330000  0.22240000  0.69480000  1.0
  H  H33  1  0.49500000  0.25950000  0.51250000  1.0
  H  H34  1  0.50500000  0.75950000  0.98750000  1.0
  H  H35  1  0.50500000  0.74050000  0.48750000  1.0
  H  H36  1  0.49500000  0.24050000  0.01250000  1.0
  H  H37  1  0.31570000  0.24770000  0.38660000  1.0
  H  H38  1  0.68430000  0.74770000  0.11340000  1.0
  H  H39  1  0.68430000  0.75230000  0.61340000  1.0
  H  H40  1  0.31570000  0.25230000  0.88660000  1.0
  H  H41  1  0.29190000  0.22140000  0.27730000  1.0
  H  H42  1  0.70810000  0.72140000  0.22270000  1.0
  H  H43  1  0.70810000  0.77860000  0.72270000  1.0
  H  H44  1  0.29190000  0.27860000  0.77730000  1.0
  H  H45  1  0.45560000  0.20800000  0.29720000  1.0
  H  H46  1  0.54440000  0.70800000  0.20280000  1.0
  H  H47  1  0.54440000  0.79200000  0.70280000  1.0
  H  H48  1  0.45560000  0.29200000  0.79720000  1.0
  H  H49  1  0.88780000  0.22390000  0.47680000  1.0
  H  H50  1  0.11220000  0.72390000  0.02320000  1.0
  H  H51  1  0.11220000  0.77610000  0.52320000  1.0
  H  H52  1  0.88780000  0.27610000  0.97680000  1.0
  H  H53  1  0.07260000  0.24170000  0.60480000  1.0
  H  H54  1  0.92740000  0.74170000  0.89520000  1.0
  H  H55  1  0.92740000  0.75830000  0.39520000  1.0
  H  H56  1  0.07260000  0.25830000  0.10480000  1.0
  H  H57  1  0.09200000  0.26080000  0.71480000  1.0
  H  H58  1  0.90800000  0.76080000  0.78520000  1.0
  H  H59  1  0.90800000  0.73920000  0.28520000  1.0
  H  H60  1  0.09200000  0.23920000  0.21480000  1.0
  H  H61  1  0.93030000  0.26690000  0.69620000  1.0
  H  H62  1  0.06970000  0.76690000  0.80380000  1.0
  H  H63  1  0.06970000  0.73310000  0.30380000  1.0
  H  H64  1  0.93030000  0.23310000  0.19620000  1.0
  H  H65  1  0.56770000  0.12710000  0.01770000  1.0
  H  H66  1  0.43230000  0.62710000  0.48230000  1.0
  H  H67  1  0.43230000  0.87290000  0.98230000  1.0
  H  H68  1  0.56770000  0.37290000  0.51770000  1.0
  H  H69  1  0.50260000  0.14900000  0.89530000  1.0
  H  H70  1  0.49740000  0.64900000  0.60470000  1.0
  H  H71  1  0.49740000  0.85100000  0.10470000  1.0
  H  H72  1  0.50260000  0.35100000  0.39530000  1.0
  H  H73  1  0.40800000  0.08990000  0.78850000  1.0
  H  H74  1  0.59200000  0.58990000  0.71150000  1.0
  H  H75  1  0.59200000  0.91010000  0.21150000  1.0
  H  H76  1  0.40800000  0.41010000  0.28850000  1.0
  H  H77  1  0.61780000  0.99300000  0.19440000  1.0
  H  H78  1  0.38220000  0.49300000  0.30560000  1.0
  H  H79  1  0.38220000  0.00700000  0.80560000  1.0
  H  H80  1  0.61780000  0.50700000  0.69440000  1.0
  H  H81  1  0.38530000  0.06100000  0.13040000  1.0
  H  H82  1  0.61470000  0.56100000  0.36960000  1.0
  H  H83  1  0.61470000  0.93900000  0.86960000  1.0
  H  H84  1  0.38530000  0.43900000  0.63040000  1.0
  H  H85  1  0.31030000  0.98450000  0.12500000  1.0
  H  H86  1  0.68970000  0.48450000  0.37500000  1.0
  H  H87  1  0.68970000  0.01550000  0.87500000  1.0
  H  H88  1  0.31030000  0.51550000  0.62500000  1.0
  H  H89  1  0.55570000  0.98600000  0.36930000  1.0
  H  H90  1  0.44430000  0.48600000  0.13070000  1.0
  H  H91  1  0.44430000  0.01400000  0.63070000  1.0
  H  H92  1  0.55570000  0.51400000  0.86930000  1.0
  H  H93  1  0.62190000  0.06050000  0.36500000  1.0
  H  H94  1  0.37810000  0.56050000  0.13500000  1.0
  H  H95  1  0.37810000  0.93950000  0.63500000  1.0
  H  H96  1  0.62190000  0.43950000  0.86500000  1.0
  H  H97  1  0.20110000  0.83560000  0.13390000  1.0
  H  H98  1  0.79890000  0.33560000  0.36610000  1.0
  H  H99  1  0.79890000  0.16440000  0.86610000  1.0
  H  H100  1  0.20110000  0.66440000  0.63390000  1.0
  H  H101  1  0.25390000  0.91660000  0.13120000  1.0
  H  H102  1  0.74610000  0.41660000  0.36880000  1.0
  H  H103  1  0.74610000  0.08340000  0.86880000  1.0
  H  H104  1  0.25390000  0.58340000  0.63120000  1.0
  H  H105  1  0.51010000  0.91220000  0.36810000  1.0
  H  H106  1  0.48990000  0.41220000  0.13190000  1.0
  H  H107  1  0.48990000  0.08780000  0.63190000  1.0
  H  H108  1  0.51010000  0.58780000  0.86810000  1.0
  H  H109  1  0.44730000  0.83170000  0.36570000  1.0
  H  H110  1  0.55270000  0.33170000  0.13430000  1.0
  H  H111  1  0.55270000  0.16830000  0.63430000  1.0
  H  H112  1  0.44730000  0.66830000  0.86570000  1.0
  H  H113  1  0.88820000  0.99820000  0.30760000  1.0
  H  H114  1  0.11180000  0.49820000  0.19240000  1.0
  H  H115  1  0.11180000  0.00180000  0.69240000  1.0
  H  H116  1  0.88820000  0.50180000  0.80760000  1.0
  H  H117  1  0.95770000  0.92430000  0.29790000  1.0
  H  H118  1  0.04230000  0.42430000  0.20210000  1.0
  H  H119  1  0.04230000  0.07570000  0.70210000  1.0
  H  H120  1  0.95770000  0.57570000  0.79790000  1.0
  H  H121  1  0.07920000  0.86830000  0.41050000  1.0
  H  H122  1  0.92080000  0.36830000  0.08950000  1.0
  H  H123  1  0.92080000  0.13170000  0.58950000  1.0
  H  H124  1  0.07920000  0.63170000  0.91050000  1.0
  H  H125  1  0.13410000  0.88630000  0.53120000  1.0
  H  H126  1  0.86590000  0.38630000  0.96880000  1.0
  H  H127  1  0.86590000  0.11370000  0.46880000  1.0
  H  H128  1  0.13410000  0.61370000  0.03120000  1.0
  H  H129  1  0.79600000  0.38490000  0.61260000  1.0
  H  H130  1  0.20400000  0.88490000  0.88740000  1.0
  H  H131  1  0.20400000  0.61510000  0.38740000  1.0
  H  H132  1  0.79600000  0.11510000  0.11260000  1.0
  H  H133  1  0.09620000  0.36690000  0.73600000  1.0
  H  H134  1  0.90380000  0.86690000  0.76400000  1.0
  H  H135  1  0.90380000  0.63310000  0.26400000  1.0
  H  H136  1  0.09620000  0.13310000  0.23600000  1.0
  H  H137  1  0.09510000  0.41760000  0.69700000  1.0
  H  H138  1  0.90490000  0.91760000  0.80300000  1.0
  H  H139  1  0.90490000  0.58240000  0.30300000  1.0
  H  H140  1  0.09510000  0.08240000  0.19700000  1.0
  H  H141  1  0.09190000  0.36350000  0.66390000  1.0
  H  H142  1  0.90810000  0.86350000  0.83610000  1.0
  H  H143  1  0.90810000  0.63650000  0.33610000  1.0
  H  H144  1  0.09190000  0.13650000  0.16390000  1.0
  H  H145  1  0.78740000  0.37960000  0.50990000  1.0
  H  H146  1  0.21260000  0.87960000  0.99010000  1.0
  H  H147  1  0.21260000  0.62040000  0.49010000  1.0
  H  H148  1  0.78740000  0.12040000  0.00990000  1.0
  H  H149  1  0.89470000  0.35100000  0.53060000  1.0
  H  H150  1  0.10530000  0.85100000  0.96940000  1.0
  H  H151  1  0.10530000  0.64900000  0.46940000  1.0
  H  H152  1  0.89470000  0.14900000  0.03060000  1.0
  H  H153  1  0.88810000  0.41150000  0.52610000  1.0
  H  H154  1  0.11190000  0.91150000  0.97390000  1.0
  H  H155  1  0.11190000  0.58850000  0.47390000  1.0
  H  H156  1  0.88810000  0.08850000  0.02610000  1.0
  H  H157  1  0.91210000  0.46370000  0.69320000  1.0
  H  H158  1  0.91620000  0.51370000  0.72350000  1.0
  H  H159  1  0.11320000  0.48820000  0.76590000  1.0
  H  H160  1  0.07520000  0.45440000  0.80260000  1.0
  H  H161  1  0.09240000  0.51410000  0.81850000  1.0
  H  H162  1  0.96560000  0.52970000  0.64090000  1.0
  H  H163  1  0.85020000  0.54600000  0.62070000  1.0
  H  H164  1  0.85520000  0.49240000  0.59060000  1.0
  H  H165  1  0.08790000  0.96370000  0.80680000  1.0
  H  H166  1  0.08380000  0.01370000  0.77650000  1.0
  H  H167  1  0.88680000  0.98820000  0.73410000  1.0
  H  H168  1  0.92480000  0.95440000  0.69740000  1.0
  H  H169  1  0.90760000  0.01410000  0.68150000  1.0
  H  H170  1  0.03440000  0.02970000  0.85910000  1.0
  H  H171  1  0.14980000  0.04600000  0.87930000  1.0
  H  H172  1  0.14480000  0.99240000  0.90940000  1.0
  H  H173  1  0.08790000  0.53630000  0.30680000  1.0
  H  H174  1  0.08380000  0.48630000  0.27650000  1.0
  H  H175  1  0.88680000  0.51180000  0.23410000  1.0
  H  H176  1  0.92480000  0.54560000  0.19740000  1.0
  H  H177  1  0.90760000  0.48590000  0.18150000  1.0
  H  H178  1  0.03440000  0.47030000  0.35910000  1.0
  H  H179  1  0.14980000  0.45400000  0.37930000  1.0
  H  H180  1  0.14480000  0.50760000  0.40940000  1.0
  H  H181  1  0.91210000  0.03630000  0.19320000  1.0
  H  H182  1  0.91620000  0.98630000  0.22350000  1.0
  H  H183  1  0.11320000  0.01180000  0.26590000  1.0
  H  H184  1  0.07520000  0.04560000  0.30260000  1.0
  H  H185  1  0.09240000  0.98590000  0.31850000  1.0
  H  H186  1  0.96560000  0.97030000  0.14090000  1.0
  H  H187  1  0.85020000  0.95400000  0.12070000  1.0
  H  H188  1  0.85520000  0.00760000  0.09060000  1.0
  H  H189  1  0.05630000  0.41460000  0.87970000  1.0
  H  H190  1  0.12900000  0.44060000  0.86940000  1.0
  H  H191  1  0.22030000  0.37730000  0.89020000  1.0
  H  H192  1  0.10560000  0.35030000  0.86090000  1.0
  H  H193  1  0.21960000  0.35690000  0.95590000  1.0
  H  H194  1  0.22480000  0.41300000  0.02450000  1.0
  H  H195  1  0.17470000  0.46870000  0.98890000  1.0
  H  H196  1  0.28720000  0.44920000  0.00760000  1.0
  H  H197  1  0.94370000  0.91460000  0.62030000  1.0
  H  H198  1  0.87100000  0.94060000  0.63060000  1.0
  H  H199  1  0.77970000  0.87730000  0.60980000  1.0
  H  H200  1  0.89440000  0.85030000  0.63910000  1.0
  H  H201  1  0.78040000  0.85690000  0.54410000  1.0
  H  H202  1  0.77520000  0.91300000  0.47550000  1.0
  H  H203  1  0.82530000  0.96870000  0.51110000  1.0
  H  H204  1  0.71280000  0.94920000  0.49240000  1.0
  H  H205  1  0.94370000  0.58540000  0.12030000  1.0
  H  H206  1  0.87100000  0.55940000  0.13060000  1.0
  H  H207  1  0.77970000  0.62270000  0.10980000  1.0
  H  H208  1  0.89440000  0.64970000  0.13910000  1.0
  H  H209  1  0.78040000  0.64310000  0.04410000  1.0
  H  H210  1  0.77520000  0.58700000  0.97550000  1.0
  H  H211  1  0.82530000  0.53130000  0.01110000  1.0
  H  H212  1  0.71280000  0.55080000  0.99240000  1.0
  H  H213  1  0.05630000  0.08540000  0.37970000  1.0
  H  H214  1  0.12900000  0.05940000  0.36940000  1.0
  H  H215  1  0.22030000  0.12270000  0.39020000  1.0
  H  H216  1  0.10560000  0.14970000  0.36090000  1.0
  H  H217  1  0.21960000  0.14310000  0.45590000  1.0
  H  H218  1  0.22480000  0.08700000  0.52450000  1.0
  H  H219  1  0.17470000  0.03130000  0.48890000  1.0
  H  H220  1  0.28720000  0.05080000  0.50760000  1.0
  C  C1  1  0.44730000  0.20750000  0.13100000  1.0
  C  C2  1  0.55270000  0.70750000  0.36900000  1.0
  C  C3  1  0.55270000  0.79250000  0.86900000  1.0
  C  C4  1  0.44730000  0.29250000  0.63100000  1.0
  C  C5  1  0.32250000  0.22350000  0.06160000  1.0
  C  C6  1  0.67750000  0.72350000  0.43840000  1.0
  C  C7  1  0.67750000  0.77650000  0.93840000  1.0
  C  C8  1  0.32250000  0.27650000  0.56160000  1.0
  C  C9  1  0.25410000  0.19990000  0.98500000  1.0
  C  C10  1  0.74590000  0.69990000  0.51500000  1.0
  C  C11  1  0.74590000  0.80010000  0.01500000  1.0
  C  C12  1  0.25410000  0.30010000  0.48500000  1.0
  C  C13  1  0.30190000  0.16050000  0.97140000  1.0
  C  C14  1  0.69810000  0.66050000  0.52860000  1.0
  C  C15  1  0.69810000  0.83950000  0.02860000  1.0
  C  C16  1  0.30190000  0.33950000  0.47140000  1.0
  C  C17  1  0.23360000  0.14030000  0.89560000  1.0
  C  C18  1  0.76640000  0.64030000  0.60440000  1.0
  C  C19  1  0.76640000  0.85970000  0.10440000  1.0
  C  C20  1  0.23360000  0.35970000  0.39560000  1.0
  C  C21  1  0.11700000  0.15580000  0.83080000  1.0
  C  C22  1  0.88300000  0.65580000  0.66920000  1.0
  C  C23  1  0.88300000  0.84420000  0.16920000  1.0
  C  C24  1  0.11700000  0.34420000  0.33080000  1.0
  C  C25  1  0.06780000  0.19210000  0.84240000  1.0
  C  C26  1  0.93220000  0.69210000  0.65760000  1.0
  C  C27  1  0.93220000  0.80790000  0.15760000  1.0
  C  C28  1  0.06780000  0.30790000  0.34240000  1.0
  C  C29  1  0.13390000  0.21530000  0.91960000  1.0
  C  C30  1  0.86610000  0.71530000  0.58040000  1.0
  C  C31  1  0.86610000  0.78470000  0.08040000  1.0
  C  C32  1  0.13390000  0.28470000  0.41960000  1.0
  C  C33  1  0.08790000  0.25370000  0.93210000  1.0
  C  C34  1  0.91210000  0.75370000  0.56790000  1.0
  C  C35  1  0.91210000  0.74630000  0.06790000  1.0
  C  C36  1  0.08790000  0.24630000  0.43210000  1.0
  C  C37  1  0.15700000  0.27820000  0.00820000  1.0
  C  C38  1  0.84300000  0.77820000  0.49180000  1.0
  C  C39  1  0.84300000  0.72180000  0.99180000  1.0
  C  C40  1  0.15700000  0.22180000  0.50820000  1.0
  C  C41  1  0.11320000  0.31980000  0.02100000  1.0
  C  C42  1  0.88680000  0.81980000  0.47900000  1.0
  C  C43  1  0.88680000  0.68020000  0.97900000  1.0
  C  C44  1  0.11320000  0.18020000  0.52100000  1.0
  C  C45  1  0.18150000  0.34190000  0.09480000  1.0
  C  C46  1  0.81850000  0.84190000  0.40520000  1.0
  C  C47  1  0.81850000  0.65810000  0.90520000  1.0
  C  C48  1  0.18150000  0.15810000  0.59480000  1.0
  C  C49  1  0.29630000  0.32560000  0.16010000  1.0
  C  C50  1  0.70370000  0.82560000  0.33990000  1.0
  C  C51  1  0.70370000  0.67440000  0.83990000  1.0
  C  C52  1  0.29630000  0.17440000  0.66010000  1.0
  C  C53  1  0.34410000  0.28740000  0.15050000  1.0
  C  C54  1  0.65590000  0.78740000  0.34950000  1.0
  C  C55  1  0.65590000  0.71260000  0.84950000  1.0
  C  C56  1  0.34410000  0.21260000  0.65050000  1.0
  C  C57  1  0.27450000  0.26210000  0.07300000  1.0
  C  C58  1  0.72550000  0.76210000  0.42700000  1.0
  C  C59  1  0.72550000  0.73790000  0.92700000  1.0
  C  C60  1  0.27450000  0.23790000  0.57300000  1.0
  C  C61  1  0.96330000  0.27010000  0.86270000  1.0
  C  C62  1  0.03670000  0.77010000  0.63730000  1.0
  C  C63  1  0.03670000  0.72990000  0.13730000  1.0
  C  C64  1  0.96330000  0.22990000  0.36270000  1.0
  C  C65  1  0.72050000  0.27160000  0.63080000  1.0
  C  C66  1  0.27950000  0.77160000  0.86920000  1.0
  C  C67  1  0.27950000  0.72840000  0.36920000  1.0
  C  C68  1  0.72050000  0.22840000  0.13080000  1.0
  C  C69  1  0.70550000  0.25410000  0.56130000  1.0
  C  C70  1  0.29450000  0.75410000  0.93870000  1.0
  C  C71  1  0.29450000  0.74590000  0.43870000  1.0
  C  C72  1  0.70550000  0.24590000  0.06130000  1.0
  C  C73  1  0.59380000  0.24380000  0.48500000  1.0
  C  C74  1  0.40620000  0.74380000  0.01500000  1.0
  C  C75  1  0.40620000  0.75620000  0.51500000  1.0
  C  C76  1  0.59380000  0.25620000  0.98500000  1.0
  C  C77  1  0.48850000  0.25000000  0.46930000  1.0
  C  C78  1  0.51150000  0.75000000  0.03070000  1.0
  C  C79  1  0.51150000  0.75000000  0.53070000  1.0
  C  C80  1  0.48850000  0.25000000  0.96930000  1.0
  C  C81  1  0.38330000  0.24240000  0.39550000  1.0
  C  C82  1  0.61670000  0.74240000  0.10450000  1.0
  C  C83  1  0.61670000  0.75760000  0.60450000  1.0
  C  C84  1  0.38330000  0.25760000  0.89550000  1.0
  C  C85  1  0.36840000  0.22680000  0.32940000  1.0
  C  C86  1  0.63160000  0.72680000  0.17060000  1.0
  C  C87  1  0.63160000  0.77320000  0.67060000  1.0
  C  C88  1  0.36840000  0.27320000  0.82940000  1.0
  C  C89  1  0.46530000  0.21930000  0.34110000  1.0
  C  C90  1  0.53470000  0.71930000  0.15890000  1.0
  C  C91  1  0.53470000  0.78070000  0.65890000  1.0
  C  C92  1  0.46530000  0.28070000  0.84110000  1.0
  C  C93  1  0.58210000  0.22870000  0.41990000  1.0
  C  C94  1  0.41790000  0.72870000  0.08010000  1.0
  C  C95  1  0.41790000  0.77130000  0.58010000  1.0
  C  C96  1  0.58210000  0.27130000  0.91990000  1.0
  C  C97  1  0.68080000  0.22260000  0.43190000  1.0
  C  C98  1  0.31920000  0.72260000  0.06810000  1.0
  C  C99  1  0.31920000  0.77740000  0.56810000  1.0
  C  C100  1  0.68080000  0.27740000  0.93190000  1.0
  C  C101  1  0.79380000  0.23460000  0.50750000  1.0
  C  C102  1  0.20620000  0.73460000  0.99250000  1.0
  C  C103  1  0.20620000  0.76540000  0.49250000  1.0
  C  C104  1  0.79380000  0.26540000  0.00750000  1.0
  C  C105  1  0.89510000  0.23250000  0.52060000  1.0
  C  C106  1  0.10490000  0.73250000  0.97940000  1.0
  C  C107  1  0.10490000  0.76750000  0.47940000  1.0
  C  C108  1  0.89510000  0.26750000  0.02060000  1.0
  C  C109  1  0.00500000  0.24280000  0.59670000  1.0
  C  C110  1  0.99500000  0.74280000  0.90330000  1.0
  C  C111  1  0.99500000  0.75720000  0.40330000  1.0
  C  C112  1  0.00500000  0.25720000  0.09670000  1.0
  C  C113  1  0.01630000  0.25500000  0.66230000  1.0
  C  C114  1  0.98370000  0.75500000  0.83770000  1.0
  C  C115  1  0.98370000  0.74500000  0.33770000  1.0
  C  C116  1  0.01630000  0.24500000  0.16230000  1.0
  C  C117  1  0.92060000  0.25840000  0.65140000  1.0
  C  C118  1  0.07940000  0.75840000  0.84860000  1.0
  C  C119  1  0.07940000  0.74160000  0.34860000  1.0
  C  C120  1  0.92060000  0.24160000  0.15140000  1.0
  C  C121  1  0.80570000  0.24970000  0.57380000  1.0
  C  C122  1  0.19430000  0.74970000  0.92620000  1.0
  C  C123  1  0.19430000  0.75030000  0.42620000  1.0
  C  C124  1  0.80570000  0.25030000  0.07380000  1.0
  C  C125  1  0.66720000  0.20560000  0.36290000  1.0
  C  C126  1  0.33280000  0.70560000  0.13710000  1.0
  C  C127  1  0.33280000  0.79440000  0.63710000  1.0
  C  C128  1  0.66720000  0.29440000  0.86290000  1.0
  C  C129  1  0.61610000  0.07200000  0.13260000  1.0
  C  C130  1  0.38390000  0.57200000  0.36740000  1.0
  C  C131  1  0.38390000  0.92800000  0.86740000  1.0
  C  C132  1  0.61610000  0.42800000  0.63260000  1.0
  C  C133  1  0.55500000  0.03530000  0.06330000  1.0
  C  C134  1  0.44500000  0.53530000  0.43670000  1.0
  C  C135  1  0.44500000  0.96470000  0.93670000  1.0
  C  C136  1  0.55500000  0.46470000  0.56330000  1.0
  C  C137  1  0.54150000  0.98520000  0.07610000  1.0
  C  C138  1  0.45850000  0.48520000  0.42390000  1.0
  C  C139  1  0.45850000  0.01480000  0.92390000  1.0
  C  C140  1  0.54150000  0.51480000  0.57610000  1.0
  C  C141  1  0.51690000  0.05130000  0.99070000  1.0
  C  C142  1  0.48310000  0.55130000  0.50930000  1.0
  C  C143  1  0.48310000  0.94870000  0.00930000  1.0
  C  C144  1  0.51690000  0.44870000  0.49070000  1.0
  C  C145  1  0.53090000  0.10240000  0.97600000  1.0
  C  C146  1  0.46910000  0.60240000  0.52400000  1.0
  C  C147  1  0.46910000  0.89760000  0.02400000  1.0
  C  C148  1  0.53090000  0.39760000  0.47600000  1.0
  C  C149  1  0.49200000  0.11530000  0.90360000  1.0
  C  C150  1  0.50800000  0.61530000  0.59640000  1.0
  C  C151  1  0.50800000  0.88470000  0.09640000  1.0
  C  C152  1  0.49200000  0.38470000  0.40360000  1.0
  C  C153  1  0.43520000  0.07950000  0.83910000  1.0
  C  C154  1  0.56480000  0.57950000  0.66090000  1.0
  C  C155  1  0.56480000  0.92050000  0.16090000  1.0
  C  C156  1  0.43520000  0.42050000  0.33910000  1.0
  C  C157  1  0.58050000  0.96950000  0.15100000  1.0
  C  C158  1  0.41950000  0.46950000  0.34900000  1.0
  C  C159  1  0.41950000  0.03050000  0.84900000  1.0
  C  C160  1  0.58050000  0.53050000  0.65100000  1.0
  C  C161  1  0.42310000  0.04440000  0.18030000  1.0
  C  C162  1  0.57690000  0.54440000  0.31970000  1.0
  C  C163  1  0.57690000  0.95560000  0.81970000  1.0
  C  C164  1  0.42310000  0.45560000  0.68030000  1.0
  C  C165  1  0.37660000  0.99870000  0.17610000  1.0
  C  C166  1  0.62340000  0.49870000  0.32390000  1.0
  C  C167  1  0.62340000  0.00130000  0.82390000  1.0
  C  C168  1  0.37660000  0.50130000  0.67610000  1.0
  C  C169  1  0.42940000  0.97400000  0.24870000  1.0
  C  C170  1  0.57060000  0.47400000  0.25130000  1.0
  C  C171  1  0.57060000  0.02600000  0.75130000  1.0
  C  C172  1  0.42940000  0.52600000  0.74870000  1.0
  C  C173  1  0.51960000  0.99970000  0.31790000  1.0
  C  C174  1  0.48040000  0.49970000  0.18210000  1.0
  C  C175  1  0.48040000  0.00030000  0.68210000  1.0
  C  C176  1  0.51960000  0.50030000  0.81790000  1.0
  C  C177  1  0.55870000  0.04430000  0.31500000  1.0
  C  C178  1  0.44130000  0.54430000  0.18500000  1.0
  C  C179  1  0.44130000  0.95570000  0.68500000  1.0
  C  C180  1  0.55870000  0.45570000  0.81500000  1.0
  C  C181  1  0.26870000  0.85040000  0.18360000  1.0
  C  C182  1  0.73130000  0.35040000  0.31640000  1.0
  C  C183  1  0.73130000  0.14960000  0.81640000  1.0
  C  C184  1  0.26870000  0.64960000  0.68360000  1.0
  C  C185  1  0.29960000  0.89960000  0.18190000  1.0
  C  C186  1  0.70040000  0.39960000  0.31810000  1.0
  C  C187  1  0.70040000  0.10040000  0.81810000  1.0
  C  C188  1  0.29960000  0.60040000  0.68190000  1.0
  C  C189  1  0.38940000  0.92250000  0.24810000  1.0
  C  C190  1  0.61060000  0.42250000  0.25190000  1.0
  C  C191  1  0.61060000  0.07750000  0.75190000  1.0
  C  C192  1  0.38940000  0.57750000  0.74810000  1.0
  C  C193  1  0.44550000  0.89700000  0.31740000  1.0
  C  C194  1  0.55450000  0.39700000  0.18260000  1.0
  C  C195  1  0.55450000  0.10300000  0.68260000  1.0
  C  C196  1  0.44550000  0.60300000  0.81740000  1.0
  C  C197  1  0.40930000  0.84790000  0.31550000  1.0
  C  C198  1  0.59070000  0.34790000  0.18450000  1.0
  C  C199  1  0.59070000  0.15210000  0.68450000  1.0
  C  C200  1  0.40930000  0.65210000  0.81550000  1.0
  C  C201  1  0.85860000  0.07030000  0.36390000  1.0
  C  C202  1  0.14140000  0.57030000  0.13610000  1.0
  C  C203  1  0.14140000  0.92970000  0.63610000  1.0
  C  C204  1  0.85860000  0.42970000  0.86390000  1.0
  C  C205  1  0.93180000  0.03410000  0.43480000  1.0
  C  C206  1  0.06820000  0.53410000  0.06520000  1.0
  C  C207  1  0.06820000  0.96590000  0.56520000  1.0
  C  C208  1  0.93180000  0.46590000  0.93480000  1.0
  C  C209  1  0.97110000  0.98930000  0.42650000  1.0
  C  C210  1  0.02890000  0.48930000  0.07350000  1.0
  C  C211  1  0.02890000  0.01070000  0.57350000  1.0
  C  C212  1  0.97110000  0.51070000  0.92650000  1.0
  C  C213  1  0.93840000  0.97640000  0.35330000  1.0
  C  C214  1  0.06160000  0.47640000  0.14670000  1.0
  C  C215  1  0.06160000  0.02360000  0.64670000  1.0
  C  C216  1  0.93840000  0.52360000  0.85330000  1.0
  C  C217  1  0.97860000  0.93230000  0.34720000  1.0
  C  C218  1  0.02140000  0.43230000  0.15280000  1.0
  C  C219  1  0.02140000  0.06770000  0.65280000  1.0
  C  C220  1  0.97860000  0.56770000  0.84720000  1.0
  C  C221  1  0.05220000  0.89860000  0.41550000  1.0
  C  C222  1  0.94780000  0.39860000  0.08450000  1.0
  C  C223  1  0.94780000  0.10140000  0.58450000  1.0
  C  C224  1  0.05220000  0.60140000  0.91550000  1.0
  C  C225  1  0.08390000  0.90880000  0.48640000  1.0
  C  C226  1  0.91610000  0.40880000  0.01360000  1.0
  C  C227  1  0.91610000  0.09120000  0.51360000  1.0
  C  C228  1  0.08390000  0.59120000  0.98640000  1.0
  C  C229  1  0.95940000  0.04560000  0.50610000  1.0
  C  C230  1  0.04060000  0.54560000  0.99390000  1.0
  C  C231  1  0.04060000  0.95440000  0.49390000  1.0
  C  C232  1  0.95940000  0.45440000  0.00610000  1.0
  C  C233  1  0.87940000  0.38390000  0.65180000  1.0
  C  C234  1  0.12060000  0.88390000  0.84820000  1.0
  C  C235  1  0.12060000  0.61610000  0.34820000  1.0
  C  C236  1  0.87940000  0.11610000  0.15180000  1.0
  C  C237  1  0.06570000  0.38280000  0.68560000  1.0
  C  C238  1  0.93430000  0.88280000  0.81440000  1.0
  C  C239  1  0.93430000  0.61720000  0.31440000  1.0
  C  C240  1  0.06570000  0.11720000  0.18560000  1.0
  C  C241  1  0.87160000  0.38120000  0.54160000  1.0
  C  C242  1  0.12840000  0.88120000  0.95840000  1.0
  C  C243  1  0.12840000  0.61880000  0.45840000  1.0
  C  C244  1  0.87160000  0.11880000  0.04160000  1.0
  C  C245  1  0.06600000  0.48740000  0.77910000  1.0
  C  C246  1  0.90100000  0.51750000  0.63440000  1.0
  C  C247  1  0.93400000  0.98740000  0.72090000  1.0
  C  C248  1  0.09900000  0.01750000  0.86560000  1.0
  C  C249  1  0.93400000  0.51260000  0.22090000  1.0
  C  C250  1  0.09900000  0.48250000  0.36560000  1.0
  C  C251  1  0.06600000  0.01260000  0.27910000  1.0
  C  C252  1  0.90100000  0.98250000  0.13440000  1.0
  C  C253  1  0.17200000  0.37240000  0.90210000  1.0
  C  C254  1  0.21180000  0.43920000  0.98850000  1.0
  C  C255  1  0.82800000  0.87240000  0.59790000  1.0
  C  C256  1  0.78820000  0.93920000  0.51150000  1.0
  C  C257  1  0.82800000  0.62760000  0.09790000  1.0
  C  C258  1  0.78820000  0.56080000  0.01150000  1.0
  C  C259  1  0.17200000  0.12760000  0.40210000  1.0
  C  C260  1  0.21180000  0.06080000  0.48850000  1.0
  N  N1  1  0.51480000  0.06653000  0.24740000  1.0
  N  N2  1  0.48520000  0.56653000  0.25260000  1.0
  N  N3  1  0.48520000  0.93347000  0.75260000  1.0
  N  N4  1  0.51480000  0.43347000  0.74740000  1.0
  N  N5  1  0.32810000  0.82412000  0.24990000  1.0
  N  N6  1  0.67190000  0.32412000  0.25010000  1.0
  N  N7  1  0.67190000  0.17588000  0.75010000  1.0
  N  N8  1  0.32810000  0.67588000  0.74990000  1.0
  N  N9  1  0.93550000  0.38340000  0.62500000  1.0
  N  N10  1  0.06450000  0.88340000  0.87500000  1.0
  N  N11  1  0.06450000  0.61660000  0.37500000  1.0
  N  N12  1  0.93550000  0.11660000  0.12500000  1.0
  N  N13  1  0.94670000  0.49520000  0.70760000  1.0
  N  N14  1  0.05330000  0.99520000  0.79240000  1.0
  N  N15  1  0.05330000  0.50480000  0.29240000  1.0
  N  N16  1  0.94670000  0.00480000  0.20760000  1.0
  N  N17  1  0.13130000  0.41820000  0.90140000  1.0
  N  N18  1  0.86870000  0.91820000  0.59860000  1.0
  N  N19  1  0.86870000  0.58180000  0.09860000  1.0
  N  N20  1  0.13130000  0.08180000  0.40140000  1.0
  O  O1  1  0.52470000  0.23384000  0.14480000  1.0
  O  O2  1  0.47530000  0.73384000  0.35520000  1.0
  O  O3  1  0.47530000  0.76616000  0.85520000  1.0
  O  O4  1  0.52470000  0.26616000  0.64480000  1.0
  O  O5  1  0.46230000  0.16924000  0.17070000  1.0
  O  O6  1  0.53770000  0.66924000  0.32930000  1.0
  O  O7  1  0.53770000  0.83076000  0.82930000  1.0
  O  O8  1  0.46230000  0.33076000  0.67070000  1.0
  O  O9  1  0.95190000  0.30650000  0.82110000  1.0
  O  O10  1  0.04810000  0.80650000  0.67890000  1.0
  O  O11  1  0.04810000  0.69350000  0.17890000  1.0
  O  O12  1  0.95190000  0.19350000  0.32110000  1.0
  O  O13  1  0.88310000  0.24740000  0.85140000  1.0
  O  O14  1  0.11690000  0.74740000  0.64860000  1.0
  O  O15  1  0.11690000  0.75260000  0.14860000  1.0
  O  O16  1  0.88310000  0.25260000  0.35140000  1.0
  O  O17  1  0.72890000  0.31839000  0.64070000  1.0
  O  O18  1  0.27110000  0.81839000  0.85930000  1.0
  O  O19  1  0.27110000  0.68161000  0.35930000  1.0
  O  O20  1  0.72890000  0.18161000  0.14070000  1.0
  O  O21  1  0.72480000  0.23894000  0.67230000  1.0
  O  O22  1  0.27520000  0.73894000  0.82770000  1.0
  O  O23  1  0.27520000  0.76106000  0.32770000  1.0
  O  O24  1  0.72480000  0.26106000  0.17230000  1.0
  O  O25  1  0.66810000  0.23963000  0.32480000  1.0
  O  O26  1  0.33190000  0.73963000  0.17520000  1.0
  O  O27  1  0.33190000  0.76037000  0.67520000  1.0
  O  O28  1  0.66810000  0.26037000  0.82480000  1.0
  O  O29  1  0.65670000  0.15886000  0.35030000  1.0
  O  O30  1  0.34330000  0.65886000  0.14970000  1.0
  O  O31  1  0.34330000  0.84114000  0.64970000  1.0
  O  O32  1  0.65670000  0.34114000  0.85030000  1.0
  O  O33  1  0.55800000  0.09268000  0.14360000  1.0
  O  O34  1  0.44200000  0.59268000  0.35640000  1.0
  O  O35  1  0.44200000  0.90732000  0.85640000  1.0
  O  O36  1  0.55800000  0.40732000  0.64360000  1.0
  O  O37  1  0.72490000  0.07853000  0.17360000  1.0
  O  O38  1  0.27510000  0.57853000  0.32640000  1.0
  O  O39  1  0.27510000  0.92147000  0.82640000  1.0
  O  O40  1  0.72490000  0.42147000  0.67360000  1.0
  O  O41  1  0.75210000  0.07267000  0.32470000  1.0
  O  O42  1  0.24790000  0.57267000  0.17530000  1.0
  O  O43  1  0.24790000  0.92733000  0.67530000  1.0
  O  O44  1  0.75210000  0.42733000  0.82470000  1.0
  O  O45  1  0.91210000  0.09489000  0.35000000  1.0
  O  O46  1  0.08790000  0.59489000  0.15000000  1.0
  O  O47  1  0.08790000  0.90511000  0.65000000  1.0
  O  O48  1  0.91210000  0.40511000  0.85000000  1.0
  O  O49  1  0.72441000  0.16972000  0.26215000  1.0
  O  O50  1  0.27559000  0.66972000  0.23785000  1.0
  O  O51  1  0.27559000  0.83028000  0.73785000  1.0
  O  O52  1  0.72441000  0.33028000  0.76215000  1.0
  O  O53  1  0.93580000  0.38310000  0.72770000  1.0
  O  O54  1  0.06420000  0.88310000  0.77230000  1.0
  O  O55  1  0.06420000  0.61690000  0.27230000  1.0
  O  O56  1  0.93580000  0.11690000  0.22770000  1.0
