data_image0
_chemical_formula_structural       Cu4H68C84N8O20Cu4H68C84N8O20NO3NO3NO3NO3NO3NO3NO3NO3
_chemical_formula_sum              "Cu8 H136 C168 N24 O64"
_cell_length_a       7.9831
_cell_length_b       17.4655
_cell_length_c       31.5628
_cell_angle_alpha    90.0
_cell_angle_beta     90.0
_cell_angle_gamma    90.0

_space_group_name_H-M_alt    "P 1"
_space_group_IT_number       1

loop_
  _space_group_symop_operation_xyz
  'x, y, z'

loop_
  _atom_site_type_symbol
  _atom_site_label
  _atom_site_symmetry_multiplicity
  _atom_site_fract_x
  _atom_site_fract_y
  _atom_site_fract_z
  _atom_site_occupancy
  Cu  Cu1       1.0  0.16719  0.23565  0.58734  1.0000
  Cu  Cu2       1.0  0.3328100000000001  0.26435  0.08734000000000003  1.0000
  Cu  Cu3       1.0  0.83281  0.73565  0.58734  1.0000
  Cu  Cu4       1.0  0.66719  0.7643500000000002  0.08734000000000003  1.0000
  H   H1        1.0  0.4098  0.3329  0.5659  1.0000
  H   H2        1.0  0.4056  0.2795  0.5334000000000002  1.0000
  H   H3        1.0  0.0576  0.9875000000000002  0.5758  1.0000
  H   H4        1.0  0.1919  0.8215000000000002  0.4947000000000001  1.0000
  H   H5        1.0  0.34410000000000013  0.038300000000000015  0.4745  1.0000
  H   H6        1.0  0.4738000000000001  0.9379  0.4358  1.0000
  H   H7        1.0  0.4465  0.8526  0.4495000000000001  1.0000
  H   H8        1.0  0.3137  0.7733  0.4015  1.0000
  H   H9        1.0  0.1732  0.7546  0.338  1.0000
  H   H10       1.0  0.09150000000000003  0.9783000000000001  0.331  1.0000
  H   H11       1.0  0.2323  0.9947  0.3929  1.0000
  H   H12       1.0  0.001  0.906  0.2724000000000001  1.0000
  H   H13       1.0  0.0572  0.7518  0.2747  1.0000
  H   H14       1.0  0.9182  0.6783000000000002  0.22080000000000005  1.0000
  H   H15       1.0  0.7866  0.6696  0.1565  1.0000
  H   H16       1.0  0.8009  0.8899000000000002  0.1409  1.0000
  H   H17       1.0  0.9334  0.9078000000000003  0.2042  1.0000
  H   H18       1.0  0.0902  0.1671  0.06590000000000003  1.0000
  H   H19       1.0  0.0944  0.2205  0.0334  1.0000
  H   H20       1.0  0.4424  0.5125000000000002  0.0758  1.0000
  H   H21       1.0  0.3081  0.6785  0.9947  1.0000
  H   H22       1.0  0.1559  0.46170000000000005  0.9745  1.0000
  H   H23       1.0  0.0262  0.5621000000000002  0.9358  1.0000
  H   H24       1.0  0.0535  0.6474000000000002  0.9495  1.0000
  H   H25       1.0  0.1863  0.7267  0.9015  1.0000
  H   H26       1.0  0.3268  0.7454  0.8380000000000002  1.0000
  H   H27       1.0  0.4085  0.5217  0.831  1.0000
  H   H28       1.0  0.2677  0.5053  0.8929  1.0000
  H   H29       1.0  0.499  0.5940000000000002  0.7724  1.0000
  H   H30       1.0  0.4428  0.7482  0.7747000000000003  1.0000
  H   H31       1.0  0.5818  0.8217  0.7208  1.0000
  H   H32       1.0  0.7134  0.8304  0.6565  1.0000
  H   H33       1.0  0.6991  0.6101  0.6409000000000002  1.0000
  H   H34       1.0  0.5666  0.5922  0.7042000000000003  1.0000
  H   H35       1.0  0.5902  0.8329  0.5659  1.0000
  H   H36       1.0  0.5944  0.7795  0.5334000000000002  1.0000
  H   H37       1.0  0.9424  0.48750000000000004  0.5758  1.0000
  H   H38       1.0  0.8081  0.3215  0.4947000000000001  1.0000
  H   H39       1.0  0.6559  0.5383  0.4745  1.0000
  H   H40       1.0  0.5262  0.4379000000000001  0.4358  1.0000
  H   H41       1.0  0.5535  0.3526  0.4495000000000001  1.0000
  H   H42       1.0  0.6863  0.2733  0.4015  1.0000
  H   H43       1.0  0.8268  0.2546  0.338  1.0000
  H   H44       1.0  0.9085  0.47830000000000006  0.331  1.0000
  H   H45       1.0  0.7677  0.4947  0.3929  1.0000
  H   H46       1.0  0.999  0.4060000000000001  0.2724000000000001  1.0000
  H   H47       1.0  0.9428  0.2518  0.2747  1.0000
  H   H48       1.0  0.0818  0.1783  0.22080000000000005  1.0000
  H   H49       1.0  0.2134  0.1696  0.1565  1.0000
  H   H50       1.0  0.1991  0.3899  0.1409  1.0000
  H   H51       1.0  0.0666  0.4078  0.2042  1.0000
  H   H52       1.0  0.9098  0.6671000000000002  0.06590000000000003  1.0000
  H   H53       1.0  0.9056  0.7205000000000003  0.0334  1.0000
  H   H54       1.0  0.5576  0.012500000000000004  0.0758  1.0000
  H   H55       1.0  0.6919  0.1785  0.9947  1.0000
  H   H56       1.0  0.8441  0.9617  0.9745  1.0000
  H   H57       1.0  0.9738  0.0621  0.9358  1.0000
  H   H58       1.0  0.9465  0.1474  0.9495  1.0000
  H   H59       1.0  0.8137  0.22670000000000007  0.9015  1.0000
  H   H60       1.0  0.6732  0.24540000000000003  0.8380000000000002  1.0000
  H   H61       1.0  0.5915  0.0217  0.831  1.0000
  H   H62       1.0  0.7323  0.0053  0.8929  1.0000
  H   H63       1.0  0.501  0.094  0.7724  1.0000
  H   H64       1.0  0.5572  0.2482  0.7747000000000003  1.0000
  H   H65       1.0  0.4182  0.3217  0.7208  1.0000
  H   H66       1.0  0.2866  0.3304  0.6565  1.0000
  H   H67       1.0  0.3009  0.1101  0.6409000000000002  1.0000
  H   H68       1.0  0.4334  0.0922  0.7042000000000003  1.0000
  C   C1        1.0  0.2051  0.1094  0.53896  1.0000
  C   C2        1.0  0.2  0.026400000000000007  0.52699  1.0000
  C   C3        1.0  0.113  0.9722000000000001  0.55135  1.0000
  C   C4        1.0  0.1091  0.8957  0.53911  1.0000
  C   C5        1.0  0.1947  0.8726  0.50293  1.0000
  C   C6        1.0  0.2851  0.926  0.4788900000000001  1.0000
  C   C7        1.0  0.286  0.0027  0.4907600000000001  1.0000
  C   C8        1.0  0.01  0.8381  0.56271  1.0000
  C   C9        1.0  0.3892  0.8996  0.44179  1.0000
  C   C10       1.0  0.2698  0.8149000000000002  0.38685000000000014  1.0000
  C   C11       1.0  0.1861  0.8038000000000002  0.3488000000000001  1.0000
  C   C12       1.0  0.1219  0.8657  0.32699  1.0000
  C   C13       1.0  0.138  0.9361000000000002  0.3446  1.0000
  C   C14       1.0  0.221  0.9458000000000001  0.38163  1.0000
  C   C15       1.0  0.0398  0.8607000000000001  0.2845  1.0000
  C   C16       1.0  0.0185  0.7972000000000002  0.2628  1.0000
  C   C17       1.0  0.9383  0.7932  0.22136000000000003  1.0000
  C   C18       1.0  0.8948  0.7225  0.2055  1.0000
  C   C19       1.0  0.8161  0.7178  0.1666  1.0000
  C   C20       1.0  0.8246  0.8473  0.15746  1.0000
  C   C21       1.0  0.9034  0.8588000000000001  0.1955  1.0000
  C   C22       1.0  0.2949000000000001  0.3906000000000001  0.03896  1.0000
  C   C23       1.0  0.3  0.4736  0.02699  1.0000
  C   C24       1.0  0.387  0.5278  0.05135  1.0000
  C   C25       1.0  0.3909  0.6043000000000002  0.03911000000000001  1.0000
  C   C26       1.0  0.3053  0.6274  0.00293  1.0000
  C   C27       1.0  0.2149  0.574  0.97889  1.0000
  C   C28       1.0  0.214  0.4973  0.99076  1.0000
  C   C29       1.0  0.49  0.6619  0.06271  1.0000
  C   C30       1.0  0.1108  0.6004  0.94179  1.0000
  C   C31       1.0  0.2302  0.6851  0.88685  1.0000
  C   C32       1.0  0.3139  0.6962  0.8488  1.0000
  C   C33       1.0  0.3781  0.6343000000000002  0.8269900000000002  1.0000
  C   C34       1.0  0.362  0.5639000000000001  0.8446000000000001  1.0000
  C   C35       1.0  0.279  0.5542  0.8816300000000002  1.0000
  C   C36       1.0  0.4602  0.6393  0.7845  1.0000
  C   C37       1.0  0.4815  0.7028  0.7628000000000003  1.0000
  C   C38       1.0  0.5617  0.7068  0.72136  1.0000
  C   C39       1.0  0.6052  0.7775000000000002  0.7055  1.0000
  C   C40       1.0  0.6839  0.7822000000000002  0.66666667  1.0000
  C   C41       1.0  0.6754  0.6527  0.65746  1.0000
  C   C42       1.0  0.5966  0.6412  0.6955  1.0000
  C   C43       1.0  0.7949  0.6094  0.53896  1.0000
  C   C44       1.0  0.8  0.5264  0.52699  1.0000
  C   C45       1.0  0.887  0.4722  0.55135  1.0000
  C   C46       1.0  0.8909  0.39570000000000005  0.53911  1.0000
  C   C47       1.0  0.8053  0.3726  0.50293  1.0000
  C   C48       1.0  0.7149  0.426  0.4788900000000001  1.0000
  C   C49       1.0  0.714  0.5027  0.4907600000000001  1.0000
  C   C50       1.0  0.99  0.3381  0.56271  1.0000
  C   C51       1.0  0.6108  0.3996  0.44179  1.0000
  C   C52       1.0  0.7302  0.3149  0.38685000000000014  1.0000
  C   C53       1.0  0.8139  0.3038  0.3488000000000001  1.0000
  C   C54       1.0  0.8781000000000002  0.3657  0.32699  1.0000
  C   C55       1.0  0.862  0.4361  0.3446  1.0000
  C   C56       1.0  0.779  0.4458000000000001  0.38163  1.0000
  C   C57       1.0  0.9602  0.36070000000000013  0.2845  1.0000
  C   C58       1.0  0.9815  0.2972  0.2628  1.0000
  C   C59       1.0  0.0617  0.2932  0.22136000000000003  1.0000
  C   C60       1.0  0.1052  0.2225  0.2055  1.0000
  C   C61       1.0  0.1839  0.21780000000000005  0.1666  1.0000
  C   C62       1.0  0.1754  0.3473  0.15746  1.0000
  C   C63       1.0  0.0966  0.3588000000000001  0.1955  1.0000
  C   C64       1.0  0.7051  0.8906000000000002  0.03896  1.0000
  C   C65       1.0  0.7  0.9736  0.02699  1.0000
  C   C66       1.0  0.613  0.027800000000000002  0.05135  1.0000
  C   C67       1.0  0.6091  0.1043  0.03911000000000001  1.0000
  C   C68       1.0  0.6947  0.1274  0.00293  1.0000
  C   C69       1.0  0.7851  0.07400000000000001  0.97889  1.0000
  C   C70       1.0  0.786  0.9973000000000001  0.99076  1.0000
  C   C71       1.0  0.51  0.1619  0.06271  1.0000
  C   C72       1.0  0.8892  0.1004  0.94179  1.0000
  C   C73       1.0  0.7698  0.1851  0.88685  1.0000
  C   C74       1.0  0.6861  0.1962  0.8488  1.0000
  C   C75       1.0  0.6219  0.1343  0.8269900000000002  1.0000
  C   C76       1.0  0.638  0.0639  0.8446000000000001  1.0000
  C   C77       1.0  0.721  0.054200000000000005  0.8816300000000002  1.0000
  C   C78       1.0  0.5398000000000002  0.1393  0.7845  1.0000
  C   C79       1.0  0.5185  0.20280000000000006  0.7628000000000003  1.0000
  C   C80       1.0  0.4383  0.20680000000000007  0.72136  1.0000
  C   C81       1.0  0.3948  0.2775  0.7055  1.0000
  C   C82       1.0  0.3161  0.2822  0.66666667  1.0000
  C   C83       1.0  0.3246000000000001  0.15270000000000003  0.65746  1.0000
  C   C84       1.0  0.4034  0.1412  0.6955  1.0000
  N   N1        1.0  0.78  0.779  0.14277  1.0000
  N   N2        1.0  0.28710000000000013  0.8857  0.40225  1.0000
  N   N3        1.0  0.72  0.721  0.64277  1.0000
  N   N4        1.0  0.2129  0.6143  0.9022500000000002  1.0000
  N   N5        1.0  0.22  0.279  0.14277  1.0000
  N   N6        1.0  0.7129  0.3857  0.40225  1.0000
  N   N7        1.0  0.28  0.221  0.64277  1.0000
  N   N8        1.0  0.7871  0.1143  0.9022500000000002  1.0000
  O   O1        1.0  0.1473  0.1274  0.57541  1.0000
  O   O2        1.0  0.269  0.15600000000000006  0.51422  1.0000
  O   O3        1.0  0.9176  0.8551000000000002  0.5932400000000002  1.0000
  O   O4        1.0  0.015  0.7690000000000002  0.55052  1.0000
  O   O5        1.0  0.4052  0.2854  0.5601100000000002  1.0000
  O   O6        1.0  0.3527000000000001  0.3726  0.07541  1.0000
  O   O7        1.0  0.231  0.344  0.01422  1.0000
  O   O8        1.0  0.5824  0.6449  0.09324  1.0000
  O   O9        1.0  0.485  0.731  0.05052  1.0000
  O   O10       1.0  0.0948  0.2146  0.06011  1.0000
  O   O11       1.0  0.8527  0.6274  0.57541  1.0000
  O   O12       1.0  0.731  0.656  0.51422  1.0000
  O   O13       1.0  0.0824  0.35510000000000014  0.5932400000000002  1.0000
  O   O14       1.0  0.985  0.269  0.55052  1.0000
  O   O15       1.0  0.5948  0.7854  0.5601100000000002  1.0000
  O   O16       1.0  0.6473  0.8726  0.07541  1.0000
  O   O17       1.0  0.769  0.8440000000000002  0.01422  1.0000
  O   O18       1.0  0.4176  0.1449  0.09324  1.0000
  O   O19       1.0  0.515  0.231  0.05052  1.0000
  O   O20       1.0  0.9052  0.7146  0.06011  1.0000
  Cu  Cu5       1.0  0.16719  0.26435  0.41266000000000014  1.0000
  Cu  Cu6       1.0  0.3328100000000001  0.23565  0.91266  1.0000
  Cu  Cu7       1.0  0.83281  0.7643500000000002  0.41266000000000014  1.0000
  Cu  Cu8       1.0  0.66719  0.73565  0.91266  1.0000
  H   H69       1.0  0.4098  0.1671  0.4341  1.0000
  H   H70       1.0  0.4056  0.2205  0.4666000000000001  1.0000
  H   H71       1.0  0.0576  0.5125000000000002  0.4242  1.0000
  H   H72       1.0  0.1919  0.6785  0.5053  1.0000
  H   H73       1.0  0.34410000000000013  0.46170000000000005  0.5255  1.0000
  H   H74       1.0  0.4738000000000001  0.5621000000000002  0.5642  1.0000
  H   H75       1.0  0.4465  0.6474000000000002  0.5505000000000002  1.0000
  H   H76       1.0  0.3137  0.7267  0.5985  1.0000
  H   H77       1.0  0.1732  0.7454  0.662  1.0000
  H   H78       1.0  0.09150000000000003  0.5217  0.6690000000000003  1.0000
  H   H79       1.0  0.2323  0.5053  0.6071000000000002  1.0000
  H   H80       1.0  0.001  0.5940000000000002  0.7276000000000002  1.0000
  H   H81       1.0  0.0572  0.7482  0.7253  1.0000
  H   H82       1.0  0.9182  0.8217  0.7792  1.0000
  H   H83       1.0  0.7866  0.8304  0.8435  1.0000
  H   H84       1.0  0.8009  0.6101  0.8591  1.0000
  H   H85       1.0  0.9334  0.5922  0.7958  1.0000
  H   H86       1.0  0.0902  0.3329  0.9341000000000003  1.0000
  H   H87       1.0  0.0944  0.2795  0.9666  1.0000
  H   H88       1.0  0.4424  0.9875000000000002  0.9242000000000002  1.0000
  H   H89       1.0  0.3081  0.8215000000000002  0.0053  1.0000
  H   H90       1.0  0.1559  0.038300000000000015  0.0255  1.0000
  H   H91       1.0  0.0262  0.9379  0.0642  1.0000
  H   H92       1.0  0.0535  0.8526  0.05050000000000002  1.0000
  H   H93       1.0  0.1863  0.7733  0.09850000000000003  1.0000
  H   H94       1.0  0.3268  0.7546  0.162  1.0000
  H   H95       1.0  0.4085  0.9783000000000001  0.169  1.0000
  H   H96       1.0  0.2677  0.9947  0.1071  1.0000
  H   H97       1.0  0.499  0.906  0.22760000000000005  1.0000
  H   H98       1.0  0.4428  0.7518  0.2253  1.0000
  H   H99       1.0  0.5818  0.6783000000000002  0.2792  1.0000
  H   H100      1.0  0.7134  0.6696  0.3435  1.0000
  H   H101      1.0  0.6991  0.8899000000000002  0.3591  1.0000
  H   H102      1.0  0.5666  0.9078000000000003  0.2958  1.0000
  H   H103      1.0  0.5902  0.6671000000000002  0.4341  1.0000
  H   H104      1.0  0.5944  0.7205000000000003  0.4666000000000001  1.0000
  H   H105      1.0  0.9424  0.012500000000000004  0.4242  1.0000
  H   H106      1.0  0.8081  0.1785  0.5053  1.0000
  H   H107      1.0  0.6559  0.9617  0.5255  1.0000
  H   H108      1.0  0.5262  0.0621  0.5642  1.0000
  H   H109      1.0  0.5535  0.1474  0.5505000000000002  1.0000
  H   H110      1.0  0.6863  0.22670000000000007  0.5985  1.0000
  H   H111      1.0  0.8268  0.24540000000000003  0.662  1.0000
  H   H112      1.0  0.9085  0.0217  0.6690000000000003  1.0000
  H   H113      1.0  0.7677  0.0053  0.6071000000000002  1.0000
  H   H114      1.0  0.999  0.094  0.7276000000000002  1.0000
  H   H115      1.0  0.9428  0.2482  0.7253  1.0000
  H   H116      1.0  0.0818  0.3217  0.7792  1.0000
  H   H117      1.0  0.2134  0.3304  0.8435  1.0000
  H   H118      1.0  0.1991  0.1101  0.8591  1.0000
  H   H119      1.0  0.0666  0.0922  0.7958  1.0000
  H   H120      1.0  0.9098  0.8329  0.9341000000000003  1.0000
  H   H121      1.0  0.9056  0.7795  0.9666  1.0000
  H   H122      1.0  0.5576  0.48750000000000004  0.9242000000000002  1.0000
  H   H123      1.0  0.6919  0.3215  0.0053  1.0000
  H   H124      1.0  0.8441  0.5383  0.0255  1.0000
  H   H125      1.0  0.9738  0.4379000000000001  0.0642  1.0000
  H   H126      1.0  0.9465  0.3526  0.05050000000000002  1.0000
  H   H127      1.0  0.8137  0.2733  0.09850000000000003  1.0000
  H   H128      1.0  0.6732  0.2546  0.162  1.0000
  H   H129      1.0  0.5915  0.47830000000000006  0.169  1.0000
  H   H130      1.0  0.7323  0.4947  0.1071  1.0000
  H   H131      1.0  0.501  0.4060000000000001  0.22760000000000005  1.0000
  H   H132      1.0  0.5572  0.2518  0.2253  1.0000
  H   H133      1.0  0.4182  0.1783  0.2792  1.0000
  H   H134      1.0  0.2866  0.1696  0.3435  1.0000
  H   H135      1.0  0.3009  0.3899  0.3591  1.0000
  H   H136      1.0  0.4334  0.4078  0.2958  1.0000
  C   C85       1.0  0.2051  0.3906000000000001  0.4610400000000001  1.0000
  C   C86       1.0  0.2  0.4736  0.47301  1.0000
  C   C87       1.0  0.113  0.5278  0.44865  1.0000
  C   C88       1.0  0.1091  0.6043000000000002  0.46089  1.0000
  C   C89       1.0  0.1947  0.6274  0.49707  1.0000
  C   C90       1.0  0.2851  0.574  0.5211100000000002  1.0000
  C   C91       1.0  0.286  0.4973  0.50924  1.0000
  C   C92       1.0  0.01  0.6619  0.43729  1.0000
  C   C93       1.0  0.3892  0.6004  0.5582100000000002  1.0000
  C   C94       1.0  0.2698  0.6851  0.61315  1.0000
  C   C95       1.0  0.1861  0.6962  0.6512  1.0000
  C   C96       1.0  0.1219  0.6343000000000002  0.67301  1.0000
  C   C97       1.0  0.138  0.5639000000000001  0.6554  1.0000
  C   C98       1.0  0.221  0.5542  0.61837  1.0000
  C   C99       1.0  0.0398  0.6393  0.7155  1.0000
  C   C100      1.0  0.0185  0.7028  0.7372  1.0000
  C   C101      1.0  0.9383  0.7068  0.77864  1.0000
  C   C102      1.0  0.8948  0.7775000000000002  0.7945  1.0000
  C   C103      1.0  0.8161  0.7822000000000002  0.8334  1.0000
  C   C104      1.0  0.8246  0.6527  0.84254  1.0000
  C   C105      1.0  0.9034  0.6412  0.8045  1.0000
  C   C106      1.0  0.2949000000000001  0.1094  0.96104  1.0000
  C   C107      1.0  0.3  0.026400000000000007  0.97301  1.0000
  C   C108      1.0  0.387  0.9722000000000001  0.94865  1.0000
  C   C109      1.0  0.3909  0.8957  0.96089  1.0000
  C   C110      1.0  0.3053  0.8726  0.99707  1.0000
  C   C111      1.0  0.2149  0.926  0.02111  1.0000
  C   C112      1.0  0.214  0.0027  0.00924  1.0000
  C   C113      1.0  0.49  0.8381  0.93729  1.0000
  C   C114      1.0  0.1108  0.8996  0.05821000000000001  1.0000
  C   C115      1.0  0.2302  0.8149000000000002  0.11315  1.0000
  C   C116      1.0  0.3139  0.8038000000000002  0.15120000000000006  1.0000
  C   C117      1.0  0.3781  0.8657  0.17301  1.0000
  C   C118      1.0  0.362  0.9361000000000002  0.1554  1.0000
  C   C119      1.0  0.279  0.9458000000000001  0.11837  1.0000
  C   C120      1.0  0.4602  0.8607000000000001  0.2155  1.0000
  C   C121      1.0  0.4815  0.7972000000000002  0.2372  1.0000
  C   C122      1.0  0.5617  0.7932  0.27864  1.0000
  C   C123      1.0  0.6052  0.7225  0.2945  1.0000
  C   C124      1.0  0.6839  0.7178  0.3334  1.0000
  C   C125      1.0  0.6754  0.8473  0.34254  1.0000
  C   C126      1.0  0.5966  0.8588000000000001  0.30450000000000005  1.0000
  C   C127      1.0  0.7949  0.8906000000000002  0.4610400000000001  1.0000
  C   C128      1.0  0.8  0.9736  0.47301  1.0000
  C   C129      1.0  0.887  0.027800000000000002  0.44865  1.0000
  C   C130      1.0  0.8909  0.1043  0.46089  1.0000
  C   C131      1.0  0.8053  0.1274  0.49707  1.0000
  C   C132      1.0  0.7149  0.07400000000000001  0.5211100000000002  1.0000
  C   C133      1.0  0.714  0.9973000000000001  0.50924  1.0000
  C   C134      1.0  0.99  0.1619  0.43729  1.0000
  C   C135      1.0  0.6108  0.1004  0.5582100000000002  1.0000
  C   C136      1.0  0.7302  0.1851  0.61315  1.0000
  C   C137      1.0  0.8139  0.1962  0.6512  1.0000
  C   C138      1.0  0.8781000000000002  0.1343  0.67301  1.0000
  C   C139      1.0  0.862  0.0639  0.6554  1.0000
  C   C140      1.0  0.779  0.054200000000000005  0.61837  1.0000
  C   C141      1.0  0.9602  0.1393  0.7155  1.0000
  C   C142      1.0  0.9815  0.20280000000000006  0.7372  1.0000
  C   C143      1.0  0.0617  0.20680000000000007  0.77864  1.0000
  C   C144      1.0  0.1052  0.2775  0.7945  1.0000
  C   C145      1.0  0.1839  0.2822  0.8334  1.0000
  C   C146      1.0  0.1754  0.15270000000000003  0.84254  1.0000
  C   C147      1.0  0.0966  0.1412  0.8045  1.0000
  C   C148      1.0  0.7051  0.6094  0.96104  1.0000
  C   C149      1.0  0.7  0.5264  0.97301  1.0000
  C   C150      1.0  0.613  0.4722  0.94865  1.0000
  C   C151      1.0  0.6091  0.39570000000000005  0.96089  1.0000
  C   C152      1.0  0.6947  0.3726  0.99707  1.0000
  C   C153      1.0  0.7851  0.426  0.02111  1.0000
  C   C154      1.0  0.786  0.5027  0.00924  1.0000
  C   C155      1.0  0.51  0.3381  0.93729  1.0000
  C   C156      1.0  0.8892  0.3996  0.05821000000000001  1.0000
  C   C157      1.0  0.7698  0.3149  0.11315  1.0000
  C   C158      1.0  0.6861  0.3038  0.15120000000000006  1.0000
  C   C159      1.0  0.6219  0.3657  0.17301  1.0000
  C   C160      1.0  0.638  0.4361  0.1554  1.0000
  C   C161      1.0  0.721  0.4458000000000001  0.11837  1.0000
  C   C162      1.0  0.5398000000000002  0.36070000000000013  0.2155  1.0000
  C   C163      1.0  0.5185  0.2972  0.2372  1.0000
  C   C164      1.0  0.4383  0.2932  0.27864  1.0000
  C   C165      1.0  0.3948  0.2225  0.2945  1.0000
  C   C166      1.0  0.3161  0.21780000000000005  0.3334  1.0000
  C   C167      1.0  0.3246000000000001  0.3473  0.34254  1.0000
  C   C168      1.0  0.4034  0.3588000000000001  0.30450000000000005  1.0000
  N   N9        1.0  0.78  0.721  0.85723  1.0000
  N   N10       1.0  0.28710000000000013  0.6143  0.59775  1.0000
  N   N11       1.0  0.72  0.779  0.35723  1.0000
  N   N12       1.0  0.2129  0.8857  0.09775  1.0000
  N   N13       1.0  0.22  0.221  0.85723  1.0000
  N   N14       1.0  0.7129  0.1143  0.59775  1.0000
  N   N15       1.0  0.28  0.279  0.35723  1.0000
  N   N16       1.0  0.7871  0.3857  0.09775  1.0000
  O   O21       1.0  0.1473  0.3726  0.42459000000000013  1.0000
  O   O22       1.0  0.269  0.344  0.48578  1.0000
  O   O23       1.0  0.9176  0.6449  0.40676  1.0000
  O   O24       1.0  0.015  0.731  0.4494800000000001  1.0000
  O   O25       1.0  0.4052  0.2146  0.43989  1.0000
  O   O26       1.0  0.3527000000000001  0.1274  0.9245900000000002  1.0000
  O   O27       1.0  0.231  0.15600000000000006  0.9857800000000002  1.0000
  O   O28       1.0  0.5824  0.8551000000000002  0.90676  1.0000
  O   O29       1.0  0.485  0.7690000000000002  0.94948  1.0000
  O   O30       1.0  0.0948  0.2854  0.93989  1.0000
  O   O31       1.0  0.8527  0.8726  0.42459000000000013  1.0000
  O   O32       1.0  0.731  0.8440000000000002  0.48578  1.0000
  O   O33       1.0  0.0824  0.1449  0.40676  1.0000
  O   O34       1.0  0.985  0.231  0.4494800000000001  1.0000
  O   O35       1.0  0.5948  0.7146  0.43989  1.0000
  O   O36       1.0  0.6473  0.6274  0.9245900000000002  1.0000
  O   O37       1.0  0.769  0.656  0.9857800000000002  1.0000
  O   O38       1.0  0.4176  0.35510000000000014  0.90676  1.0000
  O   O39       1.0  0.515  0.269  0.94948  1.0000
  O   O40       1.0  0.9052  0.7854  0.93989  1.0000
  N   N17       1.0  0.0861  0.5783  0.1272  1.0000
  O   O41       1.0  0.9951  0.5749  0.09820000000000002  1.0000
  O   O42       1.0  0.114  0.5275000000000002  0.1509  1.0000
  O   O43       1.0  0.1694  0.6401  0.1304  1.0000
  N   N18       1.0  0.0861  0.9217000000000001  0.8728000000000002  1.0000
  O   O44       1.0  0.9951  0.9251  0.9018000000000003  1.0000
  O   O45       1.0  0.114  0.9725  0.8491  1.0000
  O   O46       1.0  0.1694  0.8599000000000002  0.8696  1.0000
  N   N19       1.0  0.4139  0.9217000000000001  0.6272  1.0000
  O   O47       1.0  0.5049  0.9251  0.5982  1.0000
  O   O48       1.0  0.386  0.9725  0.6509000000000003  1.0000
  O   O49       1.0  0.3306  0.8599000000000002  0.6304  1.0000
  N   N20       1.0  0.4139  0.5783  0.3728000000000001  1.0000
  O   O50       1.0  0.5049  0.5749  0.4018  1.0000
  O   O51       1.0  0.386  0.5275000000000002  0.3491  1.0000
  O   O52       1.0  0.3306  0.6401  0.3696  1.0000
  N   N21       1.0  0.9139  0.4217  0.8728000000000002  1.0000
  O   O53       1.0  0.0049  0.4251  0.9018000000000003  1.0000
  O   O54       1.0  0.886  0.47250000000000003  0.8491  1.0000
  O   O55       1.0  0.8306  0.3599  0.8696  1.0000
  N   N22       1.0  0.9139  0.0783  0.1272  1.0000
  O   O56       1.0  0.0049  0.0749  0.09820000000000002  1.0000
  O   O57       1.0  0.886  0.0275  0.1509  1.0000
  O   O58       1.0  0.8306  0.14010000000000006  0.1304  1.0000
  N   N23       1.0  0.5861  0.0783  0.3728000000000001  1.0000
  O   O59       1.0  0.4951  0.0749  0.4018  1.0000
  O   O60       1.0  0.614  0.0275  0.3491  1.0000
  O   O61       1.0  0.6694  0.14010000000000006  0.3696  1.0000
  N   N24       1.0  0.5861  0.4217  0.6272  1.0000
  O   O62       1.0  0.4951  0.4251  0.5982  1.0000
  O   O63       1.0  0.614  0.47250000000000003  0.6509000000000003  1.0000
  O   O64       1.0  0.6694  0.3599  0.6304  1.0000
