data_image0
_chemical_formula_structural       Zn12H156C244N12O56H8C2NH8C2NH8C2NH8C2NH8C2NH8C2NH8C2NH8C2N
_chemical_formula_sum              "Zn12 H220 C260 N20 O56"
_cell_length_a       15.81
_cell_length_b       26.422
_cell_length_c       22.804900000000004
_cell_angle_alpha    90.0
_cell_angle_beta     133.89
_cell_angle_gamma    90.0

_space_group_name_H-M_alt    "P 1"
_space_group_IT_number       1

loop_
  _space_group_symop_operation_xyz
  'x, y, z'

loop_
  _atom_site_type_symbol
  _atom_site_label
  _atom_site_symmetry_multiplicity
  _atom_site_fract_x
  _atom_site_fract_y
  _atom_site_fract_z
  _atom_site_occupancy
  Zn  Zn1       1.0  0.61028  0.12509  0.24924  1.0000
  Zn  Zn2       1.0  0.38972  0.6250899999999998  0.25076  1.0000
  Zn  Zn3       1.0  0.3897200000000001  0.8749099999999997  0.75076  1.0000
  Zn  Zn4       1.0  0.61028  0.3749099999999999  0.74924  1.0000
  Zn  Zn5       1.0  0.8236799999999997  0.36058  0.7464299999999998  1.0000
  Zn  Zn6       1.0  0.17631999999999987  0.86058  0.75357  1.0000
  Zn  Zn7       1.0  0.17631999999999998  0.6394199999999999  0.25357  1.0000
  Zn  Zn8       1.0  0.82368  0.13942  0.24642999999999998  1.0000
  Zn  Zn9       1.0  0.70214  0.24522  0.25052  1.0000
  Zn  Zn10      1.0  0.29786  0.74522  0.24948  1.0000
  Zn  Zn11      1.0  0.29786  0.75478  0.74948  1.0000
  Zn  Zn12      1.0  0.70214  0.25478  0.75052  1.0000
  H   H1        1.0  0.3798  0.1487  0.0147  1.0000
  H   H2        1.0  0.6202  0.6486999999999998  0.4853  1.0000
  H   H3        1.0  0.6202  0.8512999999999997  0.9853  1.0000
  H   H4        1.0  0.3797999999999999  0.35129999999999995  0.5147  1.0000
  H   H5        1.0  0.2659  0.1151  0.8862  1.0000
  H   H6        1.0  0.7341  0.6151  0.6138  1.0000
  H   H7        1.0  0.7341  0.8849  0.1138  1.0000
  H   H8        1.0  0.2658999999999999  0.3848999999999999  0.3861999999999999  1.0000
  H   H9        1.0  0.07190000000000002  0.1409  0.7786  1.0000
  H   H10       1.0  0.9281  0.6409  0.7214  1.0000
  H   H11       1.0  0.9280999999999999  0.8590999999999999  0.22139999999999996  1.0000
  H   H12       1.0  0.07189999999999996  0.3591  0.2786  1.0000
  H   H13       1.0  0.9885  0.2018  0.7982  1.0000
  H   H14       1.0  0.011500000000000017  0.7018  0.7018  1.0000
  H   H15       1.0  0.011500000000000017  0.7981999999999999  0.2018  1.0000
  H   H16       1.0  0.9885  0.2982  0.2982  1.0000
  H   H17       1.0  0.035799999999999915  0.3318  0.9773  1.0000
  H   H18       1.0  0.9642  0.8318  0.5227  1.0000
  H   H19       1.0  0.9642  0.6682  0.0227  1.0000
  H   H20       1.0  0.035800000000000026  0.16819999999999993  0.4773  1.0000
  H   H21       1.0  0.15079999999999993  0.3691999999999999  0.1024  1.0000
  H   H22       1.0  0.8491999999999996  0.8692  0.3975999999999999  1.0000
  H   H23       1.0  0.8491999999999997  0.6308  0.8976  1.0000
  H   H24       1.0  0.15080000000000002  0.1308  0.6024  1.0000
  H   H25       1.0  0.3415  0.3411  0.2118  1.0000
  H   H26       1.0  0.6585  0.8411  0.2882  1.0000
  H   H27       1.0  0.6585  0.6588999999999999  0.7882  1.0000
  H   H28       1.0  0.3415  0.1589  0.7118  1.0000
  H   H29       1.0  0.4233  0.2776  0.1948  1.0000
  H   H30       1.0  0.5766999999999999  0.7776  0.3051999999999999  1.0000
  H   H31       1.0  0.5767000000000001  0.7224  0.8052  1.0000
  H   H32       1.0  0.4233  0.22239999999999993  0.6948  1.0000
  H   H33       1.0  0.495  0.2595  0.5125  1.0000
  H   H34       1.0  0.5049999999999999  0.7594999999999998  0.9874999999999999  1.0000
  H   H35       1.0  0.505  0.7405  0.4875  1.0000
  H   H36       1.0  0.49499999999999994  0.2405  0.0125  1.0000
  H   H37       1.0  0.3157  0.2477  0.3866  1.0000
  H   H38       1.0  0.6842999999999998  0.7476999999999999  0.1134  1.0000
  H   H39       1.0  0.6842999999999998  0.7523  0.6134  1.0000
  H   H40       1.0  0.3156999999999998  0.2523  0.8865999999999999  1.0000
  H   H41       1.0  0.2919  0.22139999999999996  0.2773  1.0000
  H   H42       1.0  0.7081  0.7214  0.2227  1.0000
  H   H43       1.0  0.7081  0.7785999999999998  0.7227  1.0000
  H   H44       1.0  0.29189999999999966  0.2786  0.7772999999999998  1.0000
  H   H45       1.0  0.4555999999999999  0.208  0.2972  1.0000
  H   H46       1.0  0.5444  0.7079999999999999  0.2028  1.0000
  H   H47       1.0  0.5444000000000001  0.792  0.7028  1.0000
  H   H48       1.0  0.4555999999999999  0.292  0.7972  1.0000
  H   H49       1.0  0.8877999999999999  0.2239  0.4768  1.0000
  H   H50       1.0  0.1122  0.7239  0.023199999999999995  1.0000
  H   H51       1.0  0.11220000000000008  0.7761  0.5232  1.0000
  H   H52       1.0  0.8877999999999999  0.2761  0.9768  1.0000
  H   H53       1.0  0.07259999999999994  0.2417  0.6048  1.0000
  H   H54       1.0  0.9274  0.7417  0.8952  1.0000
  H   H55       1.0  0.9273999999999999  0.7583  0.3951999999999999  1.0000
  H   H56       1.0  0.07259999999999994  0.2583  0.10479999999999998  1.0000
  H   H57       1.0  0.09200000000000003  0.2608  0.7148  1.0000
  H   H58       1.0  0.908  0.7608  0.7852  1.0000
  H   H59       1.0  0.908  0.7392  0.2852  1.0000
  H   H60       1.0  0.09199999999999997  0.23919999999999994  0.2148  1.0000
  H   H61       1.0  0.9302999999999998  0.2669  0.6962  1.0000
  H   H62       1.0  0.06970000000000003  0.7668999999999998  0.8038  1.0000
  H   H63       1.0  0.06969999999999994  0.7330999999999998  0.3038  1.0000
  H   H64       1.0  0.9302999999999998  0.2331  0.1962  1.0000
  H   H65       1.0  0.5677  0.1271  0.017699999999999994  1.0000
  H   H66       1.0  0.4322999999999999  0.6270999999999999  0.4822999999999999  1.0000
  H   H67       1.0  0.4322999999999999  0.8728999999999998  0.9822999999999998  1.0000
  H   H68       1.0  0.5677  0.3728999999999999  0.5177  1.0000
  H   H69       1.0  0.5026000000000003  0.149  0.8953  1.0000
  H   H70       1.0  0.4973999999999998  0.649  0.6046999999999998  1.0000
  H   H71       1.0  0.49739999999999995  0.851  0.10469999999999997  1.0000
  H   H72       1.0  0.5026  0.351  0.3953  1.0000
  H   H73       1.0  0.408  0.0899  0.7885  1.0000
  H   H74       1.0  0.592  0.5898999999999999  0.7115  1.0000
  H   H75       1.0  0.592  0.9100999999999998  0.2115  1.0000
  H   H76       1.0  0.4079999999999999  0.4101  0.28849999999999987  1.0000
  H   H77       1.0  0.6178  0.9929999999999998  0.1944  1.0000
  H   H78       1.0  0.3821999999999999  0.493  0.30559999999999987  1.0000
  H   H79       1.0  0.3822000000000001  0.007  0.8056  1.0000
  H   H80       1.0  0.6178  0.507  0.6944  1.0000
  H   H81       1.0  0.3853  0.061  0.13039999999999993  1.0000
  H   H82       1.0  0.6147  0.561  0.3696  1.0000
  H   H83       1.0  0.6147  0.9389999999999998  0.8696  1.0000
  H   H84       1.0  0.38529999999999986  0.439  0.6304  1.0000
  H   H85       1.0  0.3103  0.9845  0.125  1.0000
  H   H86       1.0  0.6897  0.4844999999999999  0.375  1.0000
  H   H87       1.0  0.6897  0.015499999999999996  0.875  1.0000
  H   H88       1.0  0.3102999999999999  0.5155  0.6249999999999998  1.0000
  H   H89       1.0  0.5557  0.986  0.3693  1.0000
  H   H90       1.0  0.4443  0.4859999999999999  0.1307  1.0000
  H   H91       1.0  0.44429999999999986  0.014  0.6307  1.0000
  H   H92       1.0  0.5556999999999999  0.514  0.8692999999999997  1.0000
  H   H93       1.0  0.6219  0.060499999999999984  0.365  1.0000
  H   H94       1.0  0.3781  0.5605  0.135  1.0000
  H   H95       1.0  0.3781  0.9394999999999999  0.635  1.0000
  H   H96       1.0  0.6219  0.4395  0.865  1.0000
  H   H97       1.0  0.2011  0.8355999999999998  0.1339  1.0000
  H   H98       1.0  0.7989  0.33559999999999995  0.3661  1.0000
  H   H99       1.0  0.7988999999999998  0.16439999999999994  0.8660999999999998  1.0000
  H   H100      1.0  0.20110000000000003  0.6643999999999998  0.6339  1.0000
  H   H101      1.0  0.2539  0.9166  0.1312  1.0000
  H   H102      1.0  0.7460999999999998  0.4166  0.3688  1.0000
  H   H103      1.0  0.7460999999999998  0.0834  0.8688  1.0000
  H   H104      1.0  0.2538999999999999  0.5834  0.6312  1.0000
  H   H105      1.0  0.5101  0.9122  0.3681  1.0000
  H   H106      1.0  0.4899  0.4122  0.1319  1.0000
  H   H107      1.0  0.4899  0.0878  0.6319  1.0000
  H   H108      1.0  0.5101  0.5878  0.8681  1.0000
  H   H109      1.0  0.4472999999999999  0.8316999999999998  0.3657  1.0000
  H   H110      1.0  0.5527  0.33169999999999994  0.1343  1.0000
  H   H111      1.0  0.5527  0.16829999999999995  0.6343  1.0000
  H   H112      1.0  0.4473000000000001  0.6682999999999999  0.8657  1.0000
  H   H113      1.0  0.8881999999999998  0.9982  0.3076  1.0000
  H   H114      1.0  0.1118  0.4981999999999999  0.1924  1.0000
  H   H115      1.0  0.11179999999999995  0.0018  0.6924  1.0000
  H   H116      1.0  0.8882  0.5018  0.8076  1.0000
  H   H117      1.0  0.9577  0.9242999999999999  0.29789999999999994  1.0000
  H   H118      1.0  0.04229999999999998  0.4243  0.2021  1.0000
  H   H119      1.0  0.04230000000000001  0.0757  0.7021  1.0000
  H   H120      1.0  0.9577  0.5757  0.7979  1.0000
  H   H121      1.0  0.07920000000000003  0.8683  0.4105  1.0000
  H   H122      1.0  0.9208  0.3683  0.0895  1.0000
  H   H123      1.0  0.9208  0.1317  0.5895  1.0000
  H   H124      1.0  0.07920000000000003  0.6317  0.9105  1.0000
  H   H125      1.0  0.13409999999999989  0.8863  0.5312  1.0000
  H   H126      1.0  0.8658999999999998  0.3863  0.9687999999999998  1.0000
  H   H127      1.0  0.8659  0.11369999999999998  0.4688  1.0000
  H   H128      1.0  0.1341  0.6137  0.0312  1.0000
  H   H129      1.0  0.796  0.3848999999999999  0.6126  1.0000
  H   H130      1.0  0.20399999999999996  0.8849  0.8874  1.0000
  H   H131      1.0  0.204  0.6151  0.3874  1.0000
  H   H132      1.0  0.796  0.1151  0.1126  1.0000
  H   H133      1.0  0.09619999999999992  0.3669  0.736  1.0000
  H   H134      1.0  0.9038  0.8668999999999999  0.764  1.0000
  H   H135      1.0  0.9037999999999999  0.6331  0.264  1.0000
  H   H136      1.0  0.09619999999999998  0.1331  0.236  1.0000
  H   H137      1.0  0.09510000000000003  0.4176  0.697  1.0000
  H   H138      1.0  0.9049  0.9176  0.803  1.0000
  H   H139      1.0  0.9048999999999999  0.5824  0.303  1.0000
  H   H140      1.0  0.09509999999999992  0.0824  0.19699999999999995  1.0000
  H   H141      1.0  0.09190000000000004  0.3635  0.6639  1.0000
  H   H142      1.0  0.9081  0.8634999999999998  0.8361  1.0000
  H   H143      1.0  0.9081  0.6364999999999997  0.3361  1.0000
  H   H144      1.0  0.09189999999999997  0.1365  0.1639  1.0000
  H   H145      1.0  0.7873999999999999  0.3796  0.5099  1.0000
  H   H146      1.0  0.21260000000000018  0.8795999999999999  0.9901000000000001  1.0000
  H   H147      1.0  0.21259999999999996  0.6204  0.4900999999999999  1.0000
  H   H148      1.0  0.7873999999999998  0.12039999999999997  0.0099  1.0000
  H   H149      1.0  0.8946999999999997  0.351  0.5305999999999997  1.0000
  H   H150      1.0  0.10529999999999996  0.851  0.9694  1.0000
  H   H151      1.0  0.10529999999999996  0.649  0.4694  1.0000
  H   H152      1.0  0.8947  0.149  0.030599999999999995  1.0000
  H   H153      1.0  0.8880999999999998  0.4115  0.5261  1.0000
  H   H154      1.0  0.11190000000000017  0.9114999999999999  0.9739000000000001  1.0000
  H   H155      1.0  0.1119  0.5885  0.4739  1.0000
  H   H156      1.0  0.8880999999999998  0.08849999999999998  0.026099999999999995  1.0000
  C   C1        1.0  0.4473  0.2075  0.131  1.0000
  C   C2        1.0  0.5527  0.7074999999999999  0.369  1.0000
  C   C3        1.0  0.5527  0.7925  0.869  1.0000
  C   C4        1.0  0.44729999999999986  0.2924999999999999  0.631  1.0000
  C   C5        1.0  0.32249999999999995  0.2235  0.0616  1.0000
  C   C6        1.0  0.6775  0.7235  0.43839999999999996  1.0000
  C   C7        1.0  0.6775  0.7765  0.9384  1.0000
  C   C8        1.0  0.3224999999999999  0.2765  0.5616  1.0000
  C   C9        1.0  0.25410000000000005  0.1999  0.985  1.0000
  C   C10       1.0  0.7458999999999998  0.6999  0.515  1.0000
  C   C11       1.0  0.7458999999999998  0.8001  0.015  1.0000
  C   C12       1.0  0.2541  0.3001  0.485  1.0000
  C   C13       1.0  0.3018999999999998  0.1605  0.9714  1.0000
  C   C14       1.0  0.6981  0.6604999999999998  0.5286  1.0000
  C   C15       1.0  0.6981  0.8394999999999998  0.0286  1.0000
  C   C16       1.0  0.3018999999999999  0.33949999999999997  0.4714  1.0000
  C   C17       1.0  0.23359999999999997  0.1403  0.8956  1.0000
  C   C18       1.0  0.7663999999999996  0.6402999999999999  0.6044  1.0000
  C   C19       1.0  0.7663999999999996  0.8597  0.10439999999999998  1.0000
  C   C20       1.0  0.2335999999999999  0.3597  0.3955999999999999  1.0000
  C   C21       1.0  0.11700000000000008  0.15579999999999997  0.8308  1.0000
  C   C22       1.0  0.883  0.6558  0.6692  1.0000
  C   C23       1.0  0.883  0.8442  0.1692  1.0000
  C   C24       1.0  0.11699999999999999  0.34419999999999995  0.3308  1.0000
  C   C25       1.0  0.0678  0.19209999999999994  0.8424  1.0000
  C   C26       1.0  0.9321999999999996  0.6921  0.6575999999999997  1.0000
  C   C27       1.0  0.9322  0.8079  0.1576  1.0000
  C   C28       1.0  0.06779999999999989  0.30789999999999995  0.3424  1.0000
  C   C29       1.0  0.13389999999999996  0.2153  0.9196  1.0000
  C   C30       1.0  0.8661  0.7152999999999999  0.5804  1.0000
  C   C31       1.0  0.8661  0.7847  0.0804  1.0000
  C   C32       1.0  0.13389999999999985  0.2847  0.41959999999999986  1.0000
  C   C33       1.0  0.08789999999999978  0.2537  0.9320999999999998  1.0000
  C   C34       1.0  0.9120999999999999  0.7537  0.5679  1.0000
  C   C35       1.0  0.9121  0.7462999999999999  0.0679  1.0000
  C   C36       1.0  0.0879  0.24629999999999994  0.4321  1.0000
  C   C37       1.0  0.157  0.2782  0.0082  1.0000
  C   C38       1.0  0.843  0.7781999999999998  0.4918  1.0000
  C   C39       1.0  0.843  0.7217999999999998  0.9918  1.0000
  C   C40       1.0  0.157  0.2218  0.5082  1.0000
  C   C41       1.0  0.1132  0.3198  0.021  1.0000
  C   C42       1.0  0.8868  0.8197999999999999  0.479  1.0000
  C   C43       1.0  0.8867999999999999  0.6802  0.9789999999999999  1.0000
  C   C44       1.0  0.11320000000000008  0.18019999999999994  0.521  1.0000
  C   C45       1.0  0.18149999999999994  0.3419  0.0948  1.0000
  C   C46       1.0  0.8185  0.8418999999999999  0.4052  1.0000
  C   C47       1.0  0.8184999999999998  0.6581  0.9051999999999998  1.0000
  C   C48       1.0  0.18149999999999997  0.1581  0.5948  1.0000
  C   C49       1.0  0.2963  0.3255999999999999  0.1601  1.0000
  C   C50       1.0  0.7037  0.8256  0.3399  1.0000
  C   C51       1.0  0.7037  0.6744  0.8399  1.0000
  C   C52       1.0  0.2962999999999998  0.1744  0.6600999999999998  1.0000
  C   C53       1.0  0.3441  0.2874  0.1505  1.0000
  C   C54       1.0  0.6559  0.7874  0.3495  1.0000
  C   C55       1.0  0.6559  0.7126  0.8495  1.0000
  C   C56       1.0  0.3441  0.2126  0.6505  1.0000
  C   C57       1.0  0.2745  0.2621  0.073  1.0000
  C   C58       1.0  0.7254999999999997  0.7621  0.42699999999999994  1.0000
  C   C59       1.0  0.7254999999999998  0.7378999999999999  0.927  1.0000
  C   C60       1.0  0.27450000000000013  0.2379  0.573  1.0000
  C   C61       1.0  0.9633  0.2701  0.8627  1.0000
  C   C62       1.0  0.036699999999999816  0.7701  0.6372999999999998  1.0000
  C   C63       1.0  0.03670000000000003  0.7299  0.1373  1.0000
  C   C64       1.0  0.9633  0.2299  0.3627  1.0000
  C   C65       1.0  0.7204999999999998  0.2716  0.6307999999999998  1.0000
  C   C66       1.0  0.2795  0.7716  0.8692  1.0000
  C   C67       1.0  0.2795  0.7284  0.3692  1.0000
  C   C68       1.0  0.7205  0.22839999999999994  0.1308  1.0000
  C   C69       1.0  0.7054999999999999  0.2541  0.5613  1.0000
  C   C70       1.0  0.29449999999999993  0.7540999999999999  0.9386999999999999  1.0000
  C   C71       1.0  0.2945  0.7459  0.4387  1.0000
  C   C72       1.0  0.7054999999999998  0.24589999999999998  0.06129999999999999  1.0000
  C   C73       1.0  0.5938  0.2438  0.485  1.0000
  C   C74       1.0  0.4062  0.7437999999999999  0.015  1.0000
  C   C75       1.0  0.4062  0.7562  0.515  1.0000
  C   C76       1.0  0.5938  0.2562  0.985  1.0000
  C   C77       1.0  0.4884999999999999  0.25  0.4692999999999999  1.0000
  C   C78       1.0  0.5115  0.75  0.030699999999999998  1.0000
  C   C79       1.0  0.5115  0.75  0.5307  1.0000
  C   C80       1.0  0.4885000000000001  0.25  0.9693  1.0000
  C   C81       1.0  0.38329999999999986  0.2424  0.3955  1.0000
  C   C82       1.0  0.6167  0.7423999999999998  0.10449999999999997  1.0000
  C   C83       1.0  0.6167  0.7575999999999998  0.6045  1.0000
  C   C84       1.0  0.3832999999999997  0.2576  0.8954999999999997  1.0000
  C   C85       1.0  0.3684  0.22679999999999995  0.3294  1.0000
  C   C86       1.0  0.6316  0.7268  0.1706  1.0000
  C   C87       1.0  0.6315999999999998  0.7731999999999999  0.6705999999999998  1.0000
  C   C88       1.0  0.3684000000000001  0.2732  0.8294  1.0000
  C   C89       1.0  0.46529999999999977  0.21929999999999997  0.3411  1.0000
  C   C90       1.0  0.5346999999999998  0.7192999999999998  0.15889999999999996  1.0000
  C   C91       1.0  0.5347  0.7806999999999997  0.6589  1.0000
  C   C92       1.0  0.4653  0.2807  0.8411  1.0000
  C   C93       1.0  0.5820999999999997  0.2287  0.4199  1.0000
  C   C94       1.0  0.4179  0.7287  0.0801  1.0000
  C   C95       1.0  0.4179  0.7712999999999999  0.5801  1.0000
  C   C96       1.0  0.5820999999999997  0.2713  0.9198999999999998  1.0000
  C   C97       1.0  0.6808  0.2226  0.4319  1.0000
  C   C98       1.0  0.3192  0.7226  0.0681  1.0000
  C   C99       1.0  0.31919999999999976  0.7774  0.5680999999999998  1.0000
  C   C100      1.0  0.6808  0.2774  0.9319  1.0000
  C   C101      1.0  0.7938  0.2346  0.5075  1.0000
  C   C102      1.0  0.20620000000000005  0.7346  0.9925  1.0000
  C   C103      1.0  0.2062  0.7653999999999999  0.4925  1.0000
  C   C104      1.0  0.7938  0.2654  0.0075  1.0000
  C   C105      1.0  0.8951000000000001  0.2325  0.5206  1.0000
  C   C106      1.0  0.10490000000000001  0.7324999999999999  0.9794  1.0000
  C   C107      1.0  0.10490000000000001  0.7675  0.4794  1.0000
  C   C108      1.0  0.8951  0.2675  0.0206  1.0000
  C   C109      1.0  0.0049999999999999194  0.2428  0.5967  1.0000
  C   C110      1.0  0.995  0.7427999999999999  0.9033  1.0000
  C   C111      1.0  0.995  0.7572  0.4032999999999999  1.0000
  C   C112      1.0  0.005000000000000004  0.2572  0.0967  1.0000
  C   C113      1.0  0.01630000000000007  0.255  0.6623  1.0000
  C   C114      1.0  0.9836999999999999  0.755  0.8376999999999999  1.0000
  C   C115      1.0  0.9837000000000001  0.745  0.3377  1.0000
  C   C116      1.0  0.016300000000000016  0.245  0.1623  1.0000
  C   C117      1.0  0.9206  0.2584  0.6514  1.0000
  C   C118      1.0  0.07940000000000001  0.7584  0.8486  1.0000
  C   C119      1.0  0.07940000000000001  0.7416  0.3486  1.0000
  C   C120      1.0  0.9206  0.24159999999999998  0.1514  1.0000
  C   C121      1.0  0.8056999999999999  0.24969999999999998  0.5737999999999999  1.0000
  C   C122      1.0  0.19429999999999997  0.7496999999999998  0.9262  1.0000
  C   C123      1.0  0.1943  0.7502999999999997  0.4262  1.0000
  C   C124      1.0  0.8057  0.2503  0.0738  1.0000
  C   C125      1.0  0.6672  0.2056  0.3629  1.0000
  C   C126      1.0  0.3327999999999999  0.7055999999999998  0.1371  1.0000
  C   C127      1.0  0.3328000000000001  0.7943999999999998  0.6371  1.0000
  C   C128      1.0  0.6671999999999998  0.2944  0.8628999999999998  1.0000
  C   C129      1.0  0.6161  0.072  0.1326  1.0000
  C   C130      1.0  0.3838999999999999  0.572  0.3674  1.0000
  C   C131      1.0  0.3838999999999999  0.928  0.8674  1.0000
  C   C132      1.0  0.6161  0.428  0.6326  1.0000
  C   C133      1.0  0.555  0.0353  0.0633  1.0000
  C   C134      1.0  0.4449999999999998  0.5353  0.43669999999999987  1.0000
  C   C135      1.0  0.4449999999999999  0.9647  0.9367  1.0000
  C   C136      1.0  0.555  0.4647  0.5633  1.0000
  C   C137      1.0  0.5414999999999998  0.9851999999999997  0.07609999999999997  1.0000
  C   C138      1.0  0.4585  0.4851999999999999  0.4239  1.0000
  C   C139      1.0  0.4584999999999997  0.0148  0.9238999999999998  1.0000
  C   C140      1.0  0.5414999999999998  0.5148  0.5761  1.0000
  C   C141      1.0  0.5169  0.05129999999999999  0.9907  1.0000
  C   C142      1.0  0.4831000000000001  0.5513  0.5093  1.0000
  C   C143      1.0  0.4831  0.9487  0.0093  1.0000
  C   C144      1.0  0.5169  0.4486999999999999  0.49069999999999997  1.0000
  C   C145      1.0  0.5309  0.1024  0.976  1.0000
  C   C146      1.0  0.46910000000000013  0.6024  0.524  1.0000
  C   C147      1.0  0.4691  0.8976  0.024  1.0000
  C   C148      1.0  0.5309  0.3976  0.476  1.0000
  C   C149      1.0  0.49199999999999977  0.11529999999999997  0.9035999999999997  1.0000
  C   C150      1.0  0.508  0.6152999999999998  0.5964  1.0000
  C   C151      1.0  0.508  0.8847  0.0964  1.0000
  C   C152      1.0  0.492  0.3846999999999999  0.4036  1.0000
  C   C153      1.0  0.4352  0.0795  0.8391  1.0000
  C   C154      1.0  0.5647999999999997  0.5795  0.6608999999999998  1.0000
  C   C155      1.0  0.5648  0.9204999999999998  0.1609  1.0000
  C   C156      1.0  0.4352  0.4204999999999999  0.3391  1.0000
  C   C157      1.0  0.5805  0.9694999999999998  0.151  1.0000
  C   C158      1.0  0.4195  0.4694999999999999  0.349  1.0000
  C   C159      1.0  0.41949999999999976  0.0305  0.8489999999999998  1.0000
  C   C160      1.0  0.5805  0.5305  0.651  1.0000
  C   C161      1.0  0.4231  0.044399999999999995  0.18029999999999993  1.0000
  C   C162      1.0  0.5769  0.5444  0.3197  1.0000
  C   C163      1.0  0.5768999999999999  0.9556  0.8196999999999998  1.0000
  C   C164      1.0  0.4231  0.4556  0.6803  1.0000
  C   C165      1.0  0.3766  0.9987  0.1761  1.0000
  C   C166      1.0  0.6233999999999997  0.4986999999999999  0.3239  1.0000
  C   C167      1.0  0.6233999999999997  0.0013  0.8239  1.0000
  C   C168      1.0  0.3766  0.5013  0.6761  1.0000
  C   C169      1.0  0.4294  0.974  0.2487  1.0000
  C   C170      1.0  0.5706  0.474  0.2513  1.0000
  C   C171      1.0  0.5705999999999998  0.026  0.7512999999999997  1.0000
  C   C172      1.0  0.4293999999999999  0.526  0.7487  1.0000
  C   C173      1.0  0.5196  0.9997  0.3179  1.0000
  C   C174      1.0  0.4804  0.49969999999999987  0.1821  1.0000
  C   C175      1.0  0.48039999999999977  0.00029999999999999987  0.6820999999999998  1.0000
  C   C176      1.0  0.5196  0.5003  0.8179  1.0000
  C   C177      1.0  0.5586999999999999  0.0443  0.31499999999999995  1.0000
  C   C178      1.0  0.44129999999999997  0.5443  0.185  1.0000
  C   C179      1.0  0.44129999999999997  0.9556999999999999  0.685  1.0000
  C   C180      1.0  0.5587  0.4557  0.815  1.0000
  C   C181      1.0  0.2687  0.8504  0.1836  1.0000
  C   C182      1.0  0.7313  0.3504  0.3164  1.0000
  C   C183      1.0  0.7312999999999997  0.1496  0.8163999999999998  1.0000
  C   C184      1.0  0.2686999999999999  0.6496  0.6836  1.0000
  C   C185      1.0  0.2996  0.8996  0.1819  1.0000
  C   C186      1.0  0.7004  0.39959999999999996  0.3181  1.0000
  C   C187      1.0  0.7003999999999998  0.10039999999999998  0.8180999999999998  1.0000
  C   C188      1.0  0.2996  0.6004  0.6819  1.0000
  C   C189      1.0  0.3894  0.9225  0.2481  1.0000
  C   C190      1.0  0.6106  0.4225  0.2519  1.0000
  C   C191      1.0  0.6106  0.0775  0.7519  1.0000
  C   C192      1.0  0.3893999999999998  0.5775  0.7480999999999999  1.0000
  C   C193      1.0  0.44549999999999984  0.897  0.3173999999999999  1.0000
  C   C194      1.0  0.5545  0.397  0.1826  1.0000
  C   C195      1.0  0.5545  0.103  0.6826  1.0000
  C   C196      1.0  0.4455  0.603  0.8174  1.0000
  C   C197      1.0  0.4093  0.8478999999999998  0.3155  1.0000
  C   C198      1.0  0.5907  0.3478999999999999  0.1845  1.0000
  C   C199      1.0  0.5906999999999998  0.15209999999999999  0.6844999999999998  1.0000
  C   C200      1.0  0.4093000000000001  0.6520999999999999  0.8155  1.0000
  C   C201      1.0  0.8586  0.07029999999999999  0.3639  1.0000
  C   C202      1.0  0.14139999999999994  0.5703  0.13609999999999994  1.0000
  C   C203      1.0  0.14140000000000008  0.9296999999999999  0.6361  1.0000
  C   C204      1.0  0.8586  0.4297  0.8639  1.0000
  C   C205      1.0  0.9318  0.0341  0.4348  1.0000
  C   C206      1.0  0.06819999999999997  0.5341  0.06519999999999997  1.0000
  C   C207      1.0  0.06820000000000002  0.9659  0.5652  1.0000
  C   C208      1.0  0.9318  0.46589999999999987  0.9348  1.0000
  C   C209      1.0  0.9710999999999997  0.9893  0.4265  1.0000
  C   C210      1.0  0.0289  0.4893  0.0735  1.0000
  C   C211      1.0  0.02889999999999997  0.0107  0.5735  1.0000
  C   C212      1.0  0.9710999999999997  0.5107  0.9265  1.0000
  C   C213      1.0  0.9384  0.9764  0.3533  1.0000
  C   C214      1.0  0.061599999999999946  0.4763999999999999  0.14669999999999994  1.0000
  C   C215      1.0  0.06159999999999999  0.023599999999999993  0.6467  1.0000
  C   C216      1.0  0.9384  0.5236  0.8533  1.0000
  C   C217      1.0  0.9786  0.9323  0.3472  1.0000
  C   C218      1.0  0.021399999999999923  0.4323  0.15279999999999994  1.0000
  C   C219      1.0  0.021399999999999867  0.0677  0.6527999999999998  1.0000
  C   C220      1.0  0.9786  0.5677  0.8472  1.0000
  C   C221      1.0  0.05220000000000003  0.8986  0.4155  1.0000
  C   C222      1.0  0.9478  0.39859999999999995  0.0845  1.0000
  C   C223      1.0  0.9478  0.1014  0.5845  1.0000
  C   C224      1.0  0.052199999999999976  0.6014  0.9155  1.0000
  C   C225      1.0  0.08389999999999988  0.9088  0.4863999999999999  1.0000
  C   C226      1.0  0.9161  0.4088  0.0136  1.0000
  C   C227      1.0  0.9161  0.09119999999999998  0.5136  1.0000
  C   C228      1.0  0.0839000000000001  0.5912  0.9864  1.0000
  C   C229      1.0  0.9594  0.04559999999999999  0.5061  1.0000
  C   C230      1.0  0.04059999999999997  0.5456  0.9938999999999999  1.0000
  C   C231      1.0  0.040599999999999914  0.9544  0.49389999999999995  1.0000
  C   C232      1.0  0.9594  0.4544  0.0061  1.0000
  C   C233      1.0  0.8794000000000001  0.38389999999999996  0.6518  1.0000
  C   C234      1.0  0.1205999999999998  0.8839  0.8481999999999997  1.0000
  C   C235      1.0  0.1206  0.6161  0.3482  1.0000
  C   C236      1.0  0.8793999999999998  0.11609999999999997  0.15179999999999996  1.0000
  C   C237      1.0  0.06570000000000001  0.3828  0.6856  1.0000
  C   C238      1.0  0.9343  0.8828  0.8144  1.0000
  C   C239      1.0  0.9343  0.6172  0.3144  1.0000
  C   C240      1.0  0.06569999999999997  0.11719999999999997  0.18559999999999996  1.0000
  C   C241      1.0  0.8716  0.3812  0.5416  1.0000
  C   C242      1.0  0.1284  0.8811999999999998  0.9584  1.0000
  C   C243      1.0  0.1284  0.6187999999999998  0.4584  1.0000
  C   C244      1.0  0.8716  0.1188  0.0416  1.0000
  N   N1        1.0  0.5148  0.06653  0.24739999999999998  1.0000
  N   N2        1.0  0.4851999999999999  0.56653  0.2526  1.0000
  N   N3        1.0  0.4852  0.9334699999999998  0.7526  1.0000
  N   N4        1.0  0.5148  0.43347  0.7474  1.0000
  N   N5        1.0  0.32809999999999995  0.82412  0.24989999999999998  1.0000
  N   N6        1.0  0.6719  0.32412  0.2501  1.0000
  N   N7        1.0  0.6719  0.17588  0.7501  1.0000
  N   N8        1.0  0.3280999999999999  0.67588  0.7499  1.0000
  N   N9        1.0  0.9354999999999999  0.38339999999999996  0.6249999999999998  1.0000
  N   N10       1.0  0.06450000000000002  0.8834  0.875  1.0000
  N   N11       1.0  0.06450000000000002  0.6166  0.375  1.0000
  N   N12       1.0  0.9355  0.1166  0.125  1.0000
  O   O1        1.0  0.5247  0.23383999999999996  0.1448  1.0000
  O   O2        1.0  0.4752999999999999  0.73384  0.3552  1.0000
  O   O3        1.0  0.4753  0.7661599999999998  0.8552  1.0000
  O   O4        1.0  0.5247  0.26616  0.6448  1.0000
  O   O5        1.0  0.4623  0.16923999999999995  0.1707  1.0000
  O   O6        1.0  0.5377  0.66924  0.3293  1.0000
  O   O7        1.0  0.5377  0.83076  0.8293  1.0000
  O   O8        1.0  0.46229999999999977  0.33075999999999994  0.6706999999999997  1.0000
  O   O9        1.0  0.9518999999999996  0.3065  0.8211  1.0000
  O   O10       1.0  0.04809999999999996  0.8065  0.6789  1.0000
  O   O11       1.0  0.04809999999999999  0.6935  0.1789  1.0000
  O   O12       1.0  0.9518999999999996  0.1935  0.3210999999999999  1.0000
  O   O13       1.0  0.8830999999999998  0.24739999999999995  0.8513999999999998  1.0000
  O   O14       1.0  0.11690000000000009  0.7474  0.6486  1.0000
  O   O15       1.0  0.1169  0.7525999999999999  0.1486  1.0000
  O   O16       1.0  0.8831  0.2526  0.3514  1.0000
  O   O17       1.0  0.7289  0.31838999999999995  0.6407  1.0000
  O   O18       1.0  0.2711  0.8183899999999997  0.8593  1.0000
  O   O19       1.0  0.2710999999999999  0.6816099999999998  0.3593  1.0000
  O   O20       1.0  0.7289  0.18160999999999994  0.1407  1.0000
  O   O21       1.0  0.7247999999999997  0.23894  0.6722999999999998  1.0000
  O   O22       1.0  0.27519999999999994  0.73894  0.8277  1.0000
  O   O23       1.0  0.27519999999999994  0.76106  0.3277  1.0000
  O   O24       1.0  0.7247999999999998  0.26106  0.1723  1.0000
  O   O25       1.0  0.6681  0.23963  0.3248  1.0000
  O   O26       1.0  0.33189999999999986  0.7396299999999998  0.17519999999999994  1.0000
  O   O27       1.0  0.3319  0.7603699999999998  0.6752  1.0000
  O   O28       1.0  0.6681  0.26037  0.8248  1.0000
  O   O29       1.0  0.6567  0.15886  0.3503  1.0000
  O   O30       1.0  0.3433  0.65886  0.1497  1.0000
  O   O31       1.0  0.3433  0.8411399999999998  0.6497  1.0000
  O   O32       1.0  0.6567  0.34114  0.8503  1.0000
  O   O33       1.0  0.558  0.09268  0.1436  1.0000
  O   O34       1.0  0.442  0.59268  0.3564  1.0000
  O   O35       1.0  0.4419999999999999  0.9073199999999998  0.8563999999999998  1.0000
  O   O36       1.0  0.558  0.4073199999999999  0.6436  1.0000
  O   O37       1.0  0.7248999999999999  0.07852999999999999  0.1736  1.0000
  O   O38       1.0  0.27509999999999996  0.57853  0.3263999999999999  1.0000
  O   O39       1.0  0.27510000000000007  0.92147  0.8264  1.0000
  O   O40       1.0  0.7248999999999998  0.42147  0.6736  1.0000
  O   O41       1.0  0.7521  0.07266999999999998  0.3247  1.0000
  O   O42       1.0  0.2479  0.57267  0.1753  1.0000
  O   O43       1.0  0.2478999999999999  0.9273299999999999  0.6753  1.0000
  O   O44       1.0  0.7521  0.42733  0.8247  1.0000
  O   O45       1.0  0.9120999999999999  0.09488999999999999  0.34999999999999987  1.0000
  O   O46       1.0  0.08790000000000003  0.59489  0.15  1.0000
  O   O47       1.0  0.0879  0.90511  0.65  1.0000
  O   O48       1.0  0.9121  0.40511  0.85  1.0000
  O   O49       1.0  0.72441  0.16972  0.26215  1.0000
  O   O50       1.0  0.27559  0.66972  0.23785  1.0000
  O   O51       1.0  0.2755899999999998  0.83028  0.7378499999999998  1.0000
  O   O52       1.0  0.7244100000000001  0.33028  0.76215  1.0000
  O   O53       1.0  0.9357999999999997  0.3831  0.7276999999999998  1.0000
  O   O54       1.0  0.06419999999999994  0.8830999999999999  0.7723  1.0000
  O   O55       1.0  0.0642  0.6169  0.2723  1.0000
  O   O56       1.0  0.9358  0.1169  0.2277  1.0000
  H   H157      1.0  0.9121  0.4637  0.6932  1.0000
  H   H158      1.0  0.9162  0.5137  0.7235  1.0000
  H   H159      1.0  0.1131999999999998  0.4882  0.7658999999999998  1.0000
  H   H160      1.0  0.07519999999999978  0.4544  0.8025999999999998  1.0000
  H   H161      1.0  0.0924000000000001  0.5140999999999999  0.8185  1.0000
  H   H162      1.0  0.9656000000000001  0.5297  0.6409  1.0000
  H   H163      1.0  0.8502  0.546  0.6207  1.0000
  H   H164      1.0  0.8552  0.4924  0.5906  1.0000
  C   C245      1.0  0.06599999999999998  0.48739999999999994  0.7791  1.0000
  C   C246      1.0  0.901  0.5175  0.6344  1.0000
  N   N13       1.0  0.9467  0.4952  0.7076  1.0000
  H   H165      1.0  0.0879  0.9637  0.8068  1.0000
  H   H166      1.0  0.08379999999999978  0.013699999999999997  0.7764999999999997  1.0000
  H   H167      1.0  0.8868  0.9881999999999997  0.7341  1.0000
  H   H168      1.0  0.9248  0.9544  0.6974  1.0000
  H   H169      1.0  0.9076  0.0141  0.6815  1.0000
  H   H170      1.0  0.03439999999999995  0.0297  0.8591  1.0000
  H   H171      1.0  0.14979999999999996  0.045999999999999985  0.8793  1.0000
  H   H172      1.0  0.14480000000000004  0.9924  0.9094  1.0000
  C   C247      1.0  0.9339999999999999  0.9874  0.7209  1.0000
  C   C248      1.0  0.09899999999999996  0.0175  0.8656  1.0000
  N   N14       1.0  0.05329999999999997  0.9952  0.7924  1.0000
  H   H173      1.0  0.0879  0.5363  0.3068  1.0000
  H   H174      1.0  0.08379999999999994  0.4863  0.2765  1.0000
  H   H175      1.0  0.8867999999999999  0.5118  0.2341  1.0000
  H   H176      1.0  0.9248  0.5456  0.19739999999999994  1.0000
  H   H177      1.0  0.9076  0.4859  0.18149999999999994  1.0000
  H   H178      1.0  0.03440000000000001  0.4702999999999999  0.3591  1.0000
  H   H179      1.0  0.14979999999999982  0.454  0.3792999999999999  1.0000
  H   H180      1.0  0.14479999999999998  0.5076  0.4094  1.0000
  C   C249      1.0  0.934  0.5126  0.2209  1.0000
  C   C250      1.0  0.09899999999999996  0.48249999999999993  0.3656  1.0000
  N   N15       1.0  0.0533  0.5048  0.2924  1.0000
  H   H181      1.0  0.9121  0.0363  0.1932  1.0000
  H   H182      1.0  0.9162  0.9863  0.2235  1.0000
  H   H183      1.0  0.11319999999999994  0.011799999999999996  0.2659  1.0000
  H   H184      1.0  0.07519999999999995  0.04559999999999999  0.3026  1.0000
  H   H185      1.0  0.09239999999999998  0.9859  0.3185  1.0000
  H   H186      1.0  0.9656  0.9702999999999999  0.1409  1.0000
  H   H187      1.0  0.8501999999999998  0.954  0.12069999999999999  1.0000
  H   H188      1.0  0.8552  0.007599999999999999  0.0906  1.0000
  C   C251      1.0  0.066  0.0126  0.2791  1.0000
  C   C252      1.0  0.901  0.9825  0.1344  1.0000
  N   N16       1.0  0.9467  0.004799999999999998  0.2076  1.0000
  H   H189      1.0  0.05629999999999999  0.4145999999999999  0.8797  1.0000
  H   H190      1.0  0.1289999999999998  0.4405999999999999  0.8693999999999997  1.0000
  H   H191      1.0  0.2202999999999999  0.3772999999999999  0.8902  1.0000
  H   H192      1.0  0.10560000000000004  0.35029999999999994  0.8609  1.0000
  H   H193      1.0  0.2196  0.3569  0.9559  1.0000
  H   H194      1.0  0.2248  0.413  0.0245  1.0000
  H   H195      1.0  0.17470000000000002  0.4687  0.9889  1.0000
  H   H196      1.0  0.2872  0.4491999999999999  0.007599999999999998  1.0000
  C   C253      1.0  0.172  0.3723999999999999  0.9021  1.0000
  C   C254      1.0  0.21180000000000002  0.4392  0.9885  1.0000
  N   N17       1.0  0.13130000000000003  0.4182  0.9014  1.0000
  H   H197      1.0  0.9436999999999999  0.9145999999999997  0.6203  1.0000
  H   H198      1.0  0.8709999999999999  0.9405999999999998  0.6306  1.0000
  H   H199      1.0  0.7797  0.8772999999999997  0.6098  1.0000
  H   H200      1.0  0.8944000000000001  0.8502999999999997  0.6391  1.0000
  H   H201      1.0  0.7804  0.8569  0.5441  1.0000
  H   H202      1.0  0.7752  0.9129999999999999  0.4755  1.0000
  H   H203      1.0  0.8253  0.9687  0.5111  1.0000
  H   H204      1.0  0.7128  0.9492  0.4924  1.0000
  C   C255      1.0  0.8279999999999997  0.8723999999999997  0.5979  1.0000
  C   C256      1.0  0.7882000000000001  0.9392  0.5115  1.0000
  N   N18       1.0  0.8686999999999999  0.9182  0.5986  1.0000
  H   H205      1.0  0.9437  0.5854  0.1203  1.0000
  H   H206      1.0  0.871  0.5594  0.13059999999999994  1.0000
  H   H207      1.0  0.7797  0.6226999999999998  0.10979999999999997  1.0000
  H   H208      1.0  0.8944  0.6497  0.1391  1.0000
  H   H209      1.0  0.7804  0.6431  0.0441  1.0000
  H   H210      1.0  0.7752000000000001  0.587  0.9755000000000001  1.0000
  H   H211      1.0  0.8253  0.5313  0.0111  1.0000
  H   H212      1.0  0.7128  0.5508  0.9924  1.0000
  C   C257      1.0  0.8279999999999997  0.6275999999999998  0.0979  1.0000
  C   C258      1.0  0.7881999999999998  0.5608  0.0115  1.0000
  N   N19       1.0  0.8686999999999998  0.5817999999999999  0.09859999999999997  1.0000
  H   H213      1.0  0.05629999999999988  0.0854  0.37969999999999987  1.0000
  H   H214      1.0  0.129  0.0594  0.3694  1.0000
  H   H215      1.0  0.22030000000000005  0.12269999999999999  0.3902  1.0000
  H   H216      1.0  0.10559999999999999  0.1497  0.3609  1.0000
  H   H217      1.0  0.21959999999999982  0.1431  0.4558999999999999  1.0000
  H   H218      1.0  0.2248  0.087  0.5245  1.0000
  H   H219      1.0  0.17470000000000002  0.0313  0.4889  1.0000
  H   H220      1.0  0.2872  0.0508  0.5076  1.0000
  C   C259      1.0  0.17199999999999993  0.1276  0.4020999999999999  1.0000
  C   C260      1.0  0.21179999999999996  0.06079999999999999  0.4885  1.0000
  N   N20       1.0  0.13130000000000003  0.0818  0.4014  1.0000
