data_image0
_chemical_formula_structural       In3C12O24H4NH4NH4N
_chemical_formula_sum              "In3 C12 O24 H12 N3"
_cell_length_a       9.025
_cell_length_b       9.025
_cell_length_c       11.343
_cell_angle_alpha    90.0
_cell_angle_beta     90.0
_cell_angle_gamma    119.99999999999999

_space_group_name_H-M_alt    "P 1"
_space_group_IT_number       1

loop_
  _space_group_symop_operation_xyz
  'x, y, z'

loop_
  _atom_site_type_symbol
  _atom_site_label
  _atom_site_symmetry_multiplicity
  _atom_site_fract_x
  _atom_site_fract_y
  _atom_site_fract_z
  _atom_site_occupancy
  In  In1       1.0  0.5  0.5  0.33333333  1.0000
  In  In2       1.0  0.5  0.0  0.0  1.0000
  In  In3       1.0  0.0  0.5  0.66666667  1.0000
  C   C1        1.0  0.21095  0.4219  0.5  1.0000
  C   C2        1.0  0.5781  0.78905  0.16666667  1.0000
  C   C3        1.0  0.21095  0.78905  0.8333333300000002  1.0000
  C   C4        1.0  0.4219  0.21095  0.16666667  1.0000
  C   C5        1.0  0.7890500000000001  0.5781  0.5  1.0000
  C   C6        1.0  0.78905  0.21095  0.8333333300000002  1.0000
  C   C7        1.0  0.30975  0.6195  0.5  1.0000
  C   C8        1.0  0.3805  0.69025  0.16666667  1.0000
  C   C9        1.0  0.30975  0.69025  0.8333333300000002  1.0000
  C   C10       1.0  0.6195  0.30975  0.16666667  1.0000
  C   C11       1.0  0.69025  0.3805  0.5  1.0000
  C   C12       1.0  0.6902500000000001  0.30975  0.8333333300000002  1.0000
  O   O1        1.0  0.2681  0.3468  0.43860000000000005  1.0000
  O   O2        1.0  0.6532  0.9212999999999999  0.10526667000000003  1.0000
  O   O3        1.0  0.0787  0.7319  0.77193333  1.0000
  O   O4        1.0  0.3468  0.2681  0.22806667000000005  1.0000
  O   O5        1.0  0.9213  0.6532  0.5614  1.0000
  O   O6        1.0  0.7319  0.0787  0.8947333300000001  1.0000
  O   O7        1.0  0.7319  0.6532  0.43860000000000005  1.0000
  O   O8        1.0  0.3468  0.0787  0.10526667000000003  1.0000
  O   O9        1.0  0.9213  0.2681  0.77193333  1.0000
  O   O10       1.0  0.6532  0.7319  0.22806667000000005  1.0000
  O   O11       1.0  0.07870000000000003  0.3468  0.5614  1.0000
  O   O12       1.0  0.2681  0.9212999999999999  0.8947333300000001  1.0000
  O   O13       1.0  0.4469000000000001  0.6883  0.4446  1.0000
  O   O14       1.0  0.3117  0.7586  0.11126667000000001  1.0000
  O   O15       1.0  0.24140000000000003  0.5531  0.7779333300000002  1.0000
  O   O16       1.0  0.6883  0.4469  0.22206667  1.0000
  O   O17       1.0  0.7586  0.3117  0.5554  1.0000
  O   O18       1.0  0.5531  0.2414  0.88873333  1.0000
  O   O19       1.0  0.5531  0.3117  0.4446  1.0000
  O   O20       1.0  0.6883  0.2414  0.11126667000000001  1.0000
  O   O21       1.0  0.7586  0.4469  0.7779333300000002  1.0000
  O   O22       1.0  0.3117  0.5531  0.22206667  1.0000
  O   O23       1.0  0.24140000000000003  0.6883  0.5554  1.0000
  O   O24       1.0  0.4469000000000001  0.7586  0.88873333  1.0000
  H   H1        1.0  0.1042  0.0763  0.9474  1.0000
  H   H2        1.0  0.02789999999999989  0.9236999999999997  0.0526  1.0000
  H   H3        1.0  0.8958  0.9236999999999997  0.9474  1.0000
  H   H4        1.0  0.9721  0.0763  0.0526  1.0000
  N   N1        1.0  0.0  0.0  0.0  1.0000
  H   H5        1.0  0.9237000000000001  0.0279  0.61406667  1.0000
  H   H6        1.0  0.0763  0.1042  0.71926667  1.0000
  H   H7        1.0  0.07629999999999983  0.9720999999999997  0.61406667  1.0000
  H   H8        1.0  0.9237000000000001  0.8958  0.71926667  1.0000
  N   N2        1.0  0.0  0.0  0.66666667  1.0000
  H   H9        1.0  0.9721  0.8958  0.28073333  1.0000
  H   H10       1.0  0.8958  0.9720999999999997  0.3859333300000001  1.0000
  H   H11       1.0  0.0279  0.1042  0.28073333  1.0000
  H   H12       1.0  0.1042  0.0279  0.3859333300000001  1.0000
  N   N3        1.0  0.0  0.0  0.33333333  1.0000
