data_image0
_chemical_formula_structural       Li2In2H36C68O16H3OH3O
_chemical_formula_sum              "Li2 In2 H42 C68 O18"
_cell_length_a       23.1185
_cell_length_b       23.118499999999997
_cell_length_c       9.944000000000003
_cell_angle_alpha    101.779
_cell_angle_beta     101.779
_cell_angle_gamma    24.316200000000006

_space_group_name_H-M_alt    "P 1"
_space_group_IT_number       1

loop_
  _space_group_symop_operation_xyz
  'x, y, z'

loop_
  _atom_site_type_symbol
  _atom_site_label
  _atom_site_symmetry_multiplicity
  _atom_site_fract_x
  _atom_site_fract_y
  _atom_site_fract_z
  _atom_site_occupancy
  Li  Li1       1.0  0.9665600000000001  0.98128  0.56346  1.0000
  Li  Li2       1.0  0.03617999999999998  0.015510000000000001  0.43773  1.0000
  In  In1       1.0  0.90584  0.9239500000000002  0.54528  1.0000
  In  In2       1.0  0.09695999999999999  0.07278  0.45577  1.0000
  H   H1        1.0  0.2667999999999999  0.7267  0.65394  1.0000
  H   H2        1.0  0.3189000000000001  0.76004  0.80813  1.0000
  H   H3        1.0  0.3713699999999999  0.81727  0.85254  1.0000
  H   H4        1.0  0.4187600000000002  0.8527599999999999  0.72614  1.0000
  H   H5        1.0  0.47121  0.9109  0.77293  1.0000
  H   H6        1.0  0.83396  0.63571  0.08203  1.0000
  H   H7        1.0  0.89831  0.67981  0.12788  1.0000
  H   H8        1.0  0.66056  0.91917  0.76178  1.0000
  H   H9        1.0  0.6045200000000001  0.86468  0.70981  1.0000
  H   H10       1.0  0.2982600000000001  0.70946  0.28693  1.0000
  H   H11       1.0  0.2625099999999999  0.6566000000000001  0.33319  1.0000
  H   H12       1.0  0.21084  0.5993  0.28402  1.0000
  H   H13       1.0  0.17799000000000004  0.54644  0.09518  1.0000
  H   H14       1.0  0.12243000000000001  0.49263  0.055080000000000004  1.0000
  H   H15       1.0  0.7359  0.27006  0.34677  1.0000
  H   H16       1.0  0.6833699999999998  0.23723  0.1922  1.0000
  H   H17       1.0  0.63097  0.1799  0.14765  1.0000
  H   H18       1.0  0.58407  0.14386  0.274  1.0000
  H   H19       1.0  0.53146  0.08589  0.22724  1.0000
  H   H20       1.0  0.16744999999999996  0.3624  0.9195799999999998  1.0000
  H   H21       1.0  0.10331  0.3181  0.87366  1.0000
  H   H22       1.0  0.34256  0.07724  0.23885  1.0000
  H   H23       1.0  0.39846  0.13185  0.29092  1.0000
  H   H24       1.0  0.70426  0.28754  0.71477  1.0000
  H   H25       1.0  0.7402  0.34018  0.66832  1.0000
  H   H26       1.0  0.79191  0.39746  0.71753  1.0000
  H   H27       1.0  0.82405  0.45106000000000007  0.9067399999999999  1.0000
  H   H28       1.0  0.87944  0.50506  0.94702  1.0000
  H   H29       1.0  0.40357  0.42186  0.56943  1.0000
  H   H30       1.0  0.8126699999999999  0.8469500000000001  0.20438  1.0000
  H   H31       1.0  0.9149100000000001  0.91702  0.09445  1.0000
  H   H32       1.0  0.82544  0.84523  0.77567  1.0000
  H   H33       1.0  0.59913  0.57495  0.43153  1.0000
  H   H34       1.0  0.18933000000000003  0.15062  0.79661  1.0000
  H   H35       1.0  0.08874999999999997  0.07881  0.9065499999999999  1.0000
  H   H36       1.0  0.17732999999999996  0.15145  0.22535  1.0000
  C   C1        1.0  0.31601  0.59009  0.61832  1.0000
  C   C2        1.0  0.3505800000000001  0.61882  0.65478  1.0000
  C   C3        1.0  0.42183  0.67999  0.78463  1.0000
  C   C4        1.0  0.45174999999999993  0.71332  0.81115  1.0000
  C   C5        1.0  0.5188000000000001  0.77724  0.77605  1.0000
  C   C6        1.0  0.5500100000000001  0.80933  0.80073  1.0000
  C   C7        1.0  0.7974199999999999  0.69527  0.00918  1.0000
  C   C8        1.0  0.8327599999999995  0.72285  0.03666  1.0000
  C   C9        1.0  0.7014199999999998  0.85479  0.8309499999999999  1.0000
  C   C10       1.0  0.6671999999999998  0.8255  0.80238  1.0000
  C   C11       1.0  0.16264999999999996  0.71409  0.58779  1.0000
  C   C12       1.0  0.43212999999999996  0.66153  0.3665  1.0000
  C   C13       1.0  0.40543999999999997  0.62552  0.31696  1.0000
  C   C14       1.0  0.34431  0.55264  0.29062  1.0000
  C   C15       1.0  0.31422  0.51964  0.26289  1.0000
  C   C16       1.0  0.25542999999999993  0.44625000000000004  0.12616  1.0000
  C   C17       1.0  0.224  0.41467  0.10216  1.0000
  C   C18       1.0  0.30609000000000003  0.81631  0.39238  1.0000
  C   C19       1.0  0.68673  0.40665  0.38279  1.0000
  C   C20       1.0  0.6521299999999998  0.37797  0.34616  1.0000
  C   C21       1.0  0.58058  0.3171  0.21598  1.0000
  C   C22       1.0  0.55067  0.28375  0.18942  1.0000
  C   C23       1.0  0.4838299999999999  0.21960999999999997  0.22443  1.0000
  C   C24       1.0  0.45250999999999997  0.18763  0.19986  1.0000
  C   C25       1.0  0.2044  0.30244  0.99222  1.0000
  C   C26       1.0  0.16911999999999994  0.27479  0.96472  1.0000
  C   C27       1.0  0.3013  0.14201  0.16992  1.0000
  C   C28       1.0  0.33546999999999993  0.17135  0.19853  1.0000
  C   C29       1.0  0.8401299999999997  0.28262  0.41328  1.0000
  C   C30       1.0  0.57058  0.33527  0.63469  1.0000
  C   C31       1.0  0.5971699999999999  0.37139  0.68439  1.0000
  C   C32       1.0  0.6583199999999998  0.44425000000000003  0.71063  1.0000
  C   C33       1.0  0.6884199999999999  0.47722  0.73836  1.0000
  C   C34       1.0  0.7467799999999998  0.55107  0.87531  1.0000
  C   C35       1.0  0.7780999999999999  0.58276  0.89945  1.0000
  C   C36       1.0  0.6966500000000001  0.18047  0.60877  1.0000
  C   C37       1.0  0.4275399999999999  0.44653  0.6055  1.0000
  C   C38       1.0  0.48977999999999966  0.5116500000000002  0.69131  1.0000
  C   C39       1.0  0.52383  0.54545  0.73061  1.0000
  C   C40       1.0  0.58491  0.6127  0.78705  1.0000
  C   C41       1.0  0.6167999999999998  0.64789  0.81343  1.0000
  C   C42       1.0  0.68047  0.71219  0.8626400000000001  1.0000
  C   C43       1.0  0.71479  0.74534  0.8914600000000001  1.0000
  C   C44       1.0  0.7847599999999996  0.80387  0.94889  1.0000
  C   C45       1.0  0.81822  0.83808  0.98504  1.0000
  C   C46       1.0  0.8328500000000001  0.8527199999999999  0.12471  1.0000
  C   C47       1.0  0.8695399999999995  0.8788700000000002  0.16393  1.0000
  C   C48       1.0  0.88781  0.8953199999999999  0.06285  1.0000
  C   C49       1.0  0.8692200000000001  0.8867099999999999  0.9222699999999999  1.0000
  C   C50       1.0  0.8360400000000001  0.8560799999999998  0.88368  1.0000
  C   C51       1.0  0.88444  0.89405  0.31056  1.0000
  C   C52       1.0  0.8845600000000003  0.9109599999999999  0.81963  1.0000
  C   C53       1.0  0.5752000000000002  0.55024  0.39562  1.0000
  C   C54       1.0  0.5128500000000001  0.48523  0.30974  1.0000
  C   C55       1.0  0.4787299999999998  0.4515  0.27037  1.0000
  C   C56       1.0  0.41762  0.38427  0.21390000000000003  1.0000
  C   C57       1.0  0.38569000000000003  0.34913  0.1875  1.0000
  C   C58       1.0  0.32181  0.28504  0.13848  1.0000
  C   C59       1.0  0.2874299999999999  0.25194  0.1097  1.0000
  C   C60       1.0  0.21759000000000003  0.1933  0.05221  1.0000
  C   C61       1.0  0.18425999999999998  0.15895  0.01601  1.0000
  C   C62       1.0  0.16951000000000002  0.14447  0.8763199999999999  1.0000
  C   C63       1.0  0.1332  0.11794  0.83707  1.0000
  C   C64       1.0  0.11536999999999997  0.10101  0.9381400000000001  1.0000
  C   C65       1.0  0.13381999999999994  0.10973  0.07872  1.0000
  C   C66       1.0  0.16671999999999998  0.14064  0.11732  1.0000
  C   C67       1.0  0.11831999999999998  0.10279  0.69044  1.0000
  C   C68       1.0  0.11855000000000003  0.0854  0.18138  1.0000
  O   O1        1.0  0.09733999999999997  0.73903  0.63798  1.0000
  O   O2        1.0  0.07426999999999995  0.8192  0.50198  1.0000
  O   O3        1.0  0.30816999999999994  0.8639400000000002  0.46009999999999995  1.0000
  O   O4        1.0  0.16987  0.92593  0.34533  1.0000
  O   O5        1.0  0.90543  0.25762  0.36289  1.0000
  O   O6        1.0  0.9285299999999999  0.17754  0.49922  1.0000
  O   O7        1.0  0.6946  0.13283  0.5409  1.0000
  O   O8        1.0  0.83287  0.07082  0.65586  1.0000
  O   O9        1.0  0.88318  0.86853  0.40919  1.0000
  O   O10       1.0  0.89878  0.9357399999999999  0.35013  1.0000
  O   O11       1.0  0.9058200000000001  0.94444  0.8609099999999998  1.0000
  O   O12       1.0  0.8761099999999998  0.89507  0.67749  1.0000
  O   O13       1.0  0.11955  0.12833  0.59179  1.0000
  O   O14       1.0  0.10403  0.06106  0.65086  1.0000
  O   O15       1.0  0.09769999999999997  0.05152  0.14015  1.0000
  O   O16       1.0  0.12652000000000002  0.10179999999999999  0.32348  1.0000
  H   H37       1.0  0.9475399999999998  0.11526  0.8255499999999999  1.0000
  H   H38       1.0  0.055470000000000054  0.99544  0.71177  1.0000
  H   H39       1.0  0.0644099999999998  0.96364  0.84877  1.0000
  O   O17       1.0  0.9965699999999997  0.03492  0.77822  1.0000
  H   H40       1.0  0.97461  0.98108  0.30422  1.0000
  H   H41       1.0  0.9779  0.01748  0.19347  1.0000
  H   H42       1.0  0.06584999999999984  0.8791600000000002  0.17544  1.0000
  O   O18       1.0  0.9732199999999999  0.98009  0.20367  1.0000
