# generated using pymatgen
data_ZnB2H36C42N8(OF4)2
_symmetry_space_group_name_H-M   'P 1'
_cell_length_a   12.94430637
_cell_length_b   12.94430637
_cell_length_c   16.21240000
_cell_angle_alpha   83.75025934
_cell_angle_beta   96.24974066
_cell_angle_gamma   118.82507344
_symmetry_Int_Tables_number   1
_chemical_formula_structural   ZnB2H36C42N8(OF4)2
_chemical_formula_sum   'Zn2 B4 H72 C84 N16 O4 F16'
_cell_volume   2360.78165944
_cell_formula_units_Z   2
loop_
 _symmetry_equiv_pos_site_id
 _symmetry_equiv_pos_as_xyz
  1  'x, y, z'
loop_
 _atom_site_type_symbol
 _atom_site_label
 _atom_site_symmetry_multiplicity
 _atom_site_fract_x
 _atom_site_fract_y
 _atom_site_fract_z
 _atom_site_occupancy
  Zn  Zn0  1  0.89365000  0.89365000  0.75000000  1
  Zn  Zn1  1  0.10635000  0.10635000  0.25000000  1
  B  B2  1  0.23860000  0.99900000  0.59950000  1
  B  B3  1  0.99900000  0.23860000  0.90050000  1
  B  B4  1  0.76140000  0.00100000  0.40050000  1
  B  B5  1  0.00100000  0.76140000  0.09950000  1
  H  H6  1  0.12487500  0.87343700  0.75031400  1
  H  H7  1  0.87343700  0.12487500  0.74968600  1
  H  H8  1  0.87512500  0.12656300  0.24968600  1
  H  H9  1  0.12656300  0.87512500  0.25031400  1
  H  H10  1  0.65888100  0.90910300  0.74708100  1
  H  H11  1  0.90910300  0.65888100  0.75291900  1
  H  H12  1  0.34111900  0.09089700  0.25291900  1
  H  H13  1  0.09089700  0.34111900  0.24708100  1
  H  H14  1  0.61975900  0.77914700  0.98130600  1
  H  H15  1  0.77914700  0.61975900  0.51869400  1
  H  H16  1  0.38024100  0.22085300  0.01869400  1
  H  H17  1  0.22085300  0.38024100  0.48130600  1
  H  H18  1  0.37424500  0.12934100  0.87752800  1
  H  H19  1  0.12934100  0.37424500  0.62247200  1
  H  H20  1  0.62575500  0.87065900  0.12247200  1
  H  H21  1  0.87065900  0.62575500  0.37752800  1
  H  H22  1  0.79695700  0.78543100  0.93403800  1
  H  H23  1  0.78543100  0.79695700  0.56596200  1
  H  H24  1  0.20304300  0.21456900  0.06596200  1
  H  H25  1  0.21456900  0.20304300  0.43403800  1
  H  H26  1  0.70029100  0.06740700  0.88675500  1
  H  H27  1  0.06740700  0.70029100  0.61324500  1
  H  H28  1  0.29970900  0.93259300  0.11324500  1
  H  H29  1  0.93259300  0.29970900  0.38675500  1
  H  H30  1  0.02456700  0.97473900  0.93220500  1
  H  H31  1  0.97473900  0.02456700  0.56779500  1
  H  H32  1  0.97543300  0.02526100  0.06779500  1
  H  H33  1  0.02526100  0.97543300  0.43220500  1
  H  H34  1  0.10623100  0.69372700  0.85808000  1
  H  H35  1  0.69372700  0.10623100  0.64192000  1
  H  H36  1  0.89376900  0.30627300  0.14192000  1
  H  H37  1  0.30627300  0.89376900  0.35808000  1
  H  H38  1  0.20788500  0.97160900  0.98204700  1
  H  H39  1  0.97160900  0.20788500  0.51795300  1
  H  H40  1  0.79211500  0.02839100  0.01795300  1
  H  H41  1  0.02839100  0.79211500  0.48204700  1
  H  H42  1  0.55933900  0.28058500  0.89753800  1
  H  H43  1  0.28058500  0.55933900  0.60246200  1
  H  H44  1  0.44066100  0.71941500  0.10246200  1
  H  H45  1  0.71941500  0.44066100  0.39753800  1
  H  H46  1  0.43405400  0.64139800  0.83933000  1
  H  H47  1  0.64139800  0.43405400  0.66067000  1
  H  H48  1  0.56594600  0.35860200  0.16067000  1
  H  H49  1  0.35860200  0.56594600  0.33933000  1
  H  H50  1  0.08372700  0.51196300  0.84200200  1
  H  H51  1  0.51196300  0.08372700  0.65799800  1
  H  H52  1  0.91627300  0.48803700  0.15799800  1
  H  H53  1  0.48803700  0.91627300  0.34200200  1
  H  H54  1  0.72351600  0.24930600  0.90442300  1
  H  H55  1  0.24930600  0.72351600  0.59557700  1
  H  H56  1  0.27648400  0.75069400  0.09557700  1
  H  H57  1  0.75069400  0.27648400  0.40442300  1
  H  H58  1  0.24824200  0.48582600  0.82908900  1
  H  H59  1  0.48582600  0.24824200  0.67091100  1
  H  H60  1  0.75175800  0.51417400  0.17091100  1
  H  H61  1  0.51417400  0.75175800  0.32908900  1
  H  H62  1  0.51270200  0.11169000  0.44213700  1
  H  H63  1  0.11169000  0.51270200  0.05786300  1
  H  H64  1  0.48729800  0.88831000  0.55786300  1
  H  H65  1  0.88831000  0.48729800  0.94213700  1
  H  H66  1  0.52699700  0.20114900  0.36527000  1
  H  H67  1  0.20114900  0.52699700  0.13473000  1
  H  H68  1  0.47300300  0.79885100  0.63473000  1
  H  H69  1  0.79885100  0.47300300  0.86527000  1
  H  H70  1  0.50312500  0.22589700  0.45187900  1
  H  H71  1  0.22589700  0.50312500  0.04812100  1
  H  H72  1  0.49687500  0.77410300  0.54812100  1
  H  H73  1  0.77410300  0.49687500  0.95187900  1
  H  H74  1  0.33000000  0.07200000  0.43700000  1
  H  H75  1  0.07200000  0.33000000  0.06300000  1
  H  H76  1  0.67000000  0.92800000  0.56300000  1
  H  H77  1  0.92800000  0.67000000  0.93700000  1
  C  C78  1  0.12241000  0.89819000  0.80146000  1
  C  C79  1  0.89819000  0.12241000  0.69854000  1
  C  C80  1  0.87759000  0.10181000  0.19854000  1
  C  C81  1  0.10181000  0.87759000  0.30146000  1
  C  C82  1  0.67180000  0.87780000  0.79915000  1
  C  C83  1  0.87780000  0.67180000  0.70085000  1
  C  C84  1  0.32820000  0.12220000  0.20085000  1
  C  C85  1  0.12220000  0.32820000  0.29915000  1
  C  C86  1  0.41786000  0.99774000  0.87322000  1
  C  C87  1  0.99774000  0.41786000  0.62678000  1
  C  C88  1  0.58214000  0.00226000  0.12678000  1
  C  C89  1  0.00226000  0.58214000  0.37322000  1
  C  C90  1  0.30532000  0.89988000  0.86506000  1
  C  C91  1  0.89988000  0.30532000  0.63494000  1
  C  C92  1  0.69468000  0.10012000  0.13494000  1
  C  C93  1  0.10012000  0.69468000  0.36506000  1
  C  C94  1  0.51926000  0.97954000  0.87336000  1
  C  C95  1  0.97954000  0.51926000  0.62664000  1
  C  C96  1  0.48074000  0.02046000  0.12664000  1
  C  C97  1  0.02046000  0.48074000  0.37336000  1
  C  C98  1  0.49996000  0.86564000  0.86304000  1
  C  C99  1  0.86564000  0.49996000  0.63696000  1
  C  C100  1  0.50004000  0.13436000  0.13696000  1
  C  C101  1  0.13436000  0.50004000  0.36304000  1
  C  C102  1  0.28693000  0.78587000  0.85749000  1
  C  C103  1  0.78587000  0.28693000  0.64251000  1
  C  C104  1  0.71307000  0.21413000  0.14251000  1
  C  C105  1  0.21413000  0.71307000  0.35749000  1
  C  C106  1  0.38838000  0.76862000  0.85410000  1
  C  C107  1  0.76862000  0.38838000  0.64590000  1
  C  C108  1  0.61162000  0.23138000  0.14590000  1
  C  C109  1  0.23138000  0.61162000  0.35410000  1
  C  C110  1  0.64913000  0.80567000  0.92890000  1
  C  C111  1  0.80567000  0.64913000  0.57110000  1
  C  C112  1  0.35087000  0.19433000  0.07110000  1
  C  C113  1  0.19433000  0.35087000  0.42890000  1
  C  C114  1  0.43834000  0.11486000  0.88060000  1
  C  C115  1  0.11486000  0.43834000  0.61940000  1
  C  C116  1  0.56166000  0.88514000  0.11940000  1
  C  C117  1  0.88514000  0.56166000  0.38060000  1
  C  C118  1  0.74724000  0.80976000  0.90240000  1
  C  C119  1  0.80976000  0.74724000  0.59760000  1
  C  C120  1  0.25276000  0.19024000  0.09760000  1
  C  C121  1  0.19024000  0.25276000  0.40240000  1
  C  C122  1  0.63399000  0.07801000  0.88550000  1
  C  C123  1  0.07801000  0.63399000  0.61450000  1
  C  C124  1  0.36601000  0.92199000  0.11450000  1
  C  C125  1  0.92199000  0.36601000  0.38550000  1
  C  C126  1  0.06780000  0.95380000  0.90180000  1
  C  C127  1  0.95380000  0.06780000  0.59820000  1
  C  C128  1  0.93220000  0.04620000  0.09820000  1
  C  C129  1  0.04620000  0.93220000  0.40180000  1
  C  C130  1  0.17255000  0.68485000  0.85380000  1
  C  C131  1  0.68485000  0.17255000  0.64620000  1
  C  C132  1  0.82745000  0.31515000  0.14620000  1
  C  C133  1  0.31515000  0.82745000  0.35380000  1
  C  C134  1  0.16913000  0.95267000  0.92980000  1
  C  C135  1  0.95267000  0.16913000  0.57020000  1
  C  C136  1  0.83087000  0.04733000  0.07020000  1
  C  C137  1  0.04733000  0.83087000  0.42980000  1
  C  C138  1  0.54859000  0.20521000  0.89190000  1
  C  C139  1  0.20521000  0.54859000  0.60810000  1
  C  C140  1  0.45141000  0.79479000  0.10810000  1
  C  C141  1  0.79479000  0.45141000  0.39190000  1
  C  C142  1  0.36943000  0.65337000  0.84290000  1
  C  C143  1  0.65337000  0.36943000  0.65710000  1
  C  C144  1  0.63057000  0.34663000  0.15710000  1
  C  C145  1  0.34663000  0.63057000  0.34290000  1
  C  C146  1  0.15904000  0.57656000  0.84420000  1
  C  C147  1  0.57656000  0.15904000  0.65580000  1
  C  C148  1  0.84096000  0.42344000  0.15580000  1
  C  C149  1  0.42344000  0.84096000  0.34420000  1
  C  C150  1  0.64803000  0.18657000  0.89540000  1
  C  C151  1  0.18657000  0.64803000  0.60460000  1
  C  C152  1  0.35197000  0.81343000  0.10460000  1
  C  C153  1  0.81343000  0.35197000  0.39540000  1
  C  C154  1  0.25882000  0.56038000  0.83740000  1
  C  C155  1  0.56038000  0.25882000  0.66260000  1
  C  C156  1  0.74118000  0.43962000  0.16260000  1
  C  C157  1  0.43962000  0.74118000  0.33740000  1
  C  C158  1  0.48650000  0.16550000  0.41520000  1
  C  C159  1  0.16550000  0.48650000  0.08480000  1
  C  C160  1  0.51350000  0.83450000  0.58480000  1
  C  C161  1  0.83450000  0.51350000  0.91520000  1
  N  N162  1  0.03787000  0.91945000  0.82169000  1
  N  N163  1  0.91945000  0.03787000  0.67831000  1
  N  N164  1  0.96213000  0.08055000  0.17831000  1
  N  N165  1  0.08055000  0.96213000  0.32169000  1
  N  N166  1  0.76125000  0.85581000  0.82084000  1
  N  N167  1  0.85581000  0.76125000  0.67916000  1
  N  N168  1  0.23875000  0.14419000  0.17916000  1
  N  N169  1  0.14419000  0.23875000  0.32084000  1
  N  N170  1  0.20377000  0.91753000  0.86505000  1
  N  N171  1  0.91753000  0.20377000  0.63495000  1
  N  N172  1  0.79623000  0.08247000  0.13495000  1
  N  N173  1  0.08247000  0.79623000  0.36505000  1
  N  N174  1  0.60218000  0.84858000  0.86264000  1
  N  N175  1  0.84858000  0.60218000  0.63736000  1
  N  N176  1  0.39782000  0.15142000  0.13736000  1
  N  N177  1  0.15142000  0.39782000  0.36264000  1
  O  O178  1  0.36689000  0.10511000  0.39563000  1
  O  O179  1  0.10511000  0.36689000  0.10437000  1
  O  O180  1  0.63311000  0.89489000  0.60437000  1
  O  O181  1  0.89489000  0.63311000  0.89563000  1
  F  F182  1  0.11920000  0.92138000  0.60750000  1
  F  F183  1  0.92138000  0.11920000  0.89250000  1
  F  F184  1  0.88080000  0.07862000  0.39250000  1
  F  F185  1  0.07862000  0.88080000  0.10750000  1
  F  F186  1  0.25175000  0.10105000  0.55719000  1
  F  F187  1  0.10105000  0.25175000  0.94281000  1
  F  F188  1  0.74825000  0.89895000  0.44281000  1
  F  F189  1  0.89895000  0.74825000  0.05719000  1
  F  F190  1  0.29718000  0.02262000  0.67474000  1
  F  F191  1  0.02262000  0.29718000  0.82526000  1
  F  F192  1  0.70282000  0.97738000  0.32526000  1
  F  F193  1  0.97738000  0.70282000  0.17474000  1
  F  F194  1  0.28427000  0.95113000  0.55000000  1
  F  F195  1  0.95113000  0.28427000  0.95000000  1
  F  F196  1  0.71573000  0.04887000  0.45000000  1
  F  F197  1  0.04887000  0.71573000  0.05000000  1
