# generated using pymatgen
data_ZnH54C58S2N8(ClO2)4
_symmetry_space_group_name_H-M   'P 1'
_cell_length_a   11.77490000
_cell_length_b   12.17400000
_cell_length_c   12.26780000
_cell_angle_alpha   111.15700000
_cell_angle_beta   110.38900000
_cell_angle_gamma   93.62900000
_symmetry_Int_Tables_number   1
_chemical_formula_structural   ZnH54C58S2N8(ClO2)4
_chemical_formula_sum   'Zn1 H54 C58 S2 N8 Cl4 O8'
_cell_volume   1500.89977290
_cell_formula_units_Z   1
loop_
 _symmetry_equiv_pos_site_id
 _symmetry_equiv_pos_as_xyz
  1  'x, y, z'
loop_
 _atom_site_type_symbol
 _atom_site_label
 _atom_site_symmetry_multiplicity
 _atom_site_fract_x
 _atom_site_fract_y
 _atom_site_fract_z
 _atom_site_occupancy
  Zn  Zn0  1  0.50000000  0.50000000  0.50000000  1
  H  H1  1  0.57300000  0.24410000  0.52580000  1
  H  H2  1  0.42700000  0.75590000  0.47420000  1
  H  H3  1  0.75050000  0.23630000  0.69910000  1
  H  H4  1  0.24950000  0.76370000  0.30090000  1
  H  H5  1  0.75070000  0.57740000  0.75210000  1
  H  H6  1  0.24930000  0.42260000  0.24790000  1
  H  H7  1  0.54320000  0.77810000  0.70770000  1
  H  H8  1  0.45680000  0.22190000  0.29230000  1
  H  H9  1  0.37840000  0.48420000  0.70190000  1
  H  H10  1  0.62160000  0.51580000  0.29810000  1
  H  H11  1  0.37170000  0.65380000  0.88030000  1
  H  H12  1  0.62830000  0.34620000  0.11970000  1
  H  H13  1  0.68440000  0.79380000  0.98730000  1
  H  H14  1  0.31560000  0.20620000  0.01270000  1
  H  H15  1  0.86540000  0.88380000  0.16030000  1
  H  H16  1  0.13460000  0.11620000  0.83970000  1
  H  H17  1  0.89430000  0.08190000  0.30610000  1
  H  H18  1  0.10570000  0.91810000  0.69390000  1
  H  H19  1  0.74240000  0.18710000  0.27570000  1
  H  H20  1  0.25760000  0.81290000  0.72430000  1
  H  H21  1  0.96180000  0.36220000  0.68960000  1
  H  H22  1  0.03820000  0.63780000  0.31040000  1
  H  H23  1  0.15130000  0.33390000  0.69170000  1
  H  H24  1  0.84870000  0.66610000  0.30830000  1
  H  H25  1  0.32360000  0.39850000  0.88430000  1
  H  H26  1  0.67640000  0.60150000  0.11570000  1
  H  H27  1  0.30550000  0.48690000  0.07310000  1
  H  H28  1  0.69450000  0.51310000  0.92690000  1
  H  H29  1  0.83350000  0.20170000  0.90480000  1
  H  H30  1  0.16650000  0.79830000  0.09520000  1
  H  H31  1  0.78340000  0.28870000  0.99820000  1
  H  H32  1  0.21660000  0.71130000  0.00180000  1
  H  H33  1  0.75290000  0.14940000  0.96040000  1
  H  H34  1  0.24710000  0.85060000  0.03960000  1
  H  H35  1  0.00580000  0.11230000  0.98860000  1
  H  H36  1  0.99420000  0.88770000  0.01140000  1
  H  H37  1  0.17430000  0.11720000  0.15900000  1
  H  H38  1  0.82570000  0.88280000  0.84100000  1
  H  H39  1  0.06360000  0.36450000  0.39700000  1
  H  H40  1  0.93640000  0.63550000  0.60300000  1
  H  H41  1  0.89490000  0.35530000  0.22540000  1
  H  H42  1  0.10510000  0.64470000  0.77460000  1
  H  H43  1  0.19300000  0.97670000  0.32960000  1
  H  H44  1  0.80700000  0.02330000  0.67040000  1
  H  H45  1  0.11060000  0.02540000  0.46590000  1
  H  H46  1  0.88940000  0.97460000  0.53410000  1
  H  H47  1  0.18520000  0.92580000  0.48070000  1
  H  H48  1  0.81480000  0.07420000  0.51930000  1
  H  H49  1  0.04090000  0.89010000  0.40440000  1
  H  H50  1  0.95910000  0.10990000  0.59560000  1
  H  H51  1  0.60950000  0.84860000  0.37750000  1
  H  H52  1  0.39050000  0.15140000  0.62250000  1
  H  H53  1  0.64440000  0.89560000  0.28740000  1
  H  H54  1  0.35560000  0.10440000  0.71260000  1
  C  C55  1  0.63150000  0.31060000  0.59350000  1
  C  C56  1  0.36850000  0.68940000  0.40650000  1
  C  C57  1  0.72930000  0.30520000  0.68870000  1
  C  C58  1  0.27070000  0.69480000  0.31130000  1
  C  C59  1  0.72810000  0.49370000  0.71670000  1
  C  C60  1  0.27190000  0.50630000  0.28330000  1
  C  C61  1  0.50170000  0.72590000  0.72810000  1
  C  C62  1  0.49830000  0.27410000  0.27190000  1
  C  C63  1  0.41090000  0.56490000  0.72570000  1
  C  C64  1  0.58910000  0.43510000  0.27430000  1
  C  C65  1  0.40680000  0.65790000  0.82430000  1
  C  C66  1  0.59320000  0.34210000  0.17570000  1
  C  C67  1  0.38660000  0.94400000  0.89100000  1
  C  C68  1  0.61340000  0.05600000  0.10900000  1
  C  C69  1  0.48380000  0.88380000  0.91440000  1
  C  C70  1  0.51620000  0.11620000  0.08560000  1
  C  C71  1  0.59600000  0.93450000  0.01880000  1
  C  C72  1  0.40400000  0.06550000  0.98120000  1
  C  C73  1  0.69470000  0.87280000  0.04380000  1
  C  C74  1  0.30530000  0.12720000  0.95620000  1
  C  C75  1  0.80240000  0.92590000  0.14690000  1
  C  C76  1  0.19760000  0.07410000  0.85310000  1
  C  C77  1  0.81980000  0.04590000  0.23500000  1
  C  C78  1  0.18020000  0.95410000  0.76500000  1
  C  C79  1  0.72910000  0.10850000  0.21690000  1
  C  C80  1  0.27090000  0.89150000  0.78310000  1
  C  C81  1  0.88240000  0.51990000  0.99880000  1
  C  C82  1  0.11760000  0.48010000  0.00120000  1
  C  C83  1  0.89830000  0.46340000  0.88590000  1
  C  C84  1  0.10170000  0.53660000  0.11410000  1
  C  C85  1  0.01220000  0.44230000  0.88220000  1
  C  C86  1  0.98780000  0.55770000  0.11780000  1
  C  C87  1  0.02940000  0.38730000  0.76720000  1
  C  C88  1  0.97060000  0.61270000  0.23280000  1
  C  C89  1  0.14230000  0.37080000  0.76820000  1
  C  C90  1  0.85770000  0.62920000  0.23180000  1
  C  C91  1  0.24630000  0.40950000  0.88490000  1
  C  C92  1  0.75370000  0.59050000  0.11510000  1
  C  C93  1  0.23570000  0.46210000  0.99740000  1
  C  C94  1  0.76430000  0.53790000  0.00260000  1
  C  C95  1  0.81460000  0.21620000  0.97820000  1
  C  C96  1  0.18540000  0.78380000  0.02180000  1
  C  C97  1  0.93010000  0.22990000  0.08960000  1
  C  C98  1  0.06990000  0.77010000  0.91040000  1
  C  C99  1  0.01630000  0.16160000  0.07110000  1
  C  C100  1  0.98370000  0.83840000  0.92890000  1
  C  C101  1  0.11800000  0.16510000  0.17300000  1
  C  C102  1  0.88200000  0.83490000  0.82700000  1
  C  C103  1  0.13560000  0.23970000  0.29500000  1
  C  C104  1  0.86440000  0.76030000  0.70500000  1
  C  C105  1  0.05150000  0.31240000  0.31480000  1
  C  C106  1  0.94850000  0.68760000  0.68520000  1
  C  C107  1  0.95060000  0.30640000  0.21190000  1
  C  C108  1  0.04940000  0.69360000  0.78810000  1
  C  C109  1  0.11590000  0.94340000  0.42470000  1
  C  C110  1  0.88410000  0.05660000  0.57530000  1
  C  C111  1  0.57550000  0.86320000  0.30100000  1
  C  C112  1  0.42450000  0.13680000  0.69900000  1
  S  S113  1  0.26716000  0.24911000  0.42574000  1
  S  S114  1  0.73284000  0.75089000  0.57426000  1
  N  N115  1  0.63090000  0.42930000  0.61150000  1
  N  N116  1  0.36910000  0.57070000  0.38850000  1
  N  N117  1  0.79140000  0.42330000  0.76730000  1
  N  N118  1  0.20860000  0.57670000  0.23270000  1
  N  N119  1  0.47040000  0.60710000  0.66550000  1
  N  N120  1  0.52960000  0.39290000  0.33450000  1
  N  N121  1  0.46480000  0.76080000  0.82590000  1
  N  N122  1  0.53520000  0.23920000  0.17410000  1
  Cl  Cl123  1  0.48395000  0.96887000  0.32320000  1
  Cl  Cl124  1  0.51605000  0.03113000  0.67680000  1
  Cl  Cl125  1  0.49233000  0.72707000  0.17152000  1
  Cl  Cl126  1  0.50767000  0.27293000  0.82848000  1
  O  O127  1  0.35420000  0.35502000  0.45310000  1
  O  O128  1  0.64580000  0.64498000  0.54690000  1
  O  O129  1  0.22940000  0.26160000  0.52820000  1
  O  O130  1  0.77060000  0.73840000  0.47180000  1
  O  O131  1  0.31270000  0.14022000  0.38270000  1
  O  O132  1  0.68730000  0.85978000  0.61730000  1
  O  O133  1  0.13200000  0.92740000  0.31300000  1
  O  O134  1  0.86800000  0.07260000  0.68700000  1
