# generated using pymatgen
data_CdH46C56S2N8(Cl2O3)2
_symmetry_space_group_name_H-M   'P 1'
_cell_length_a   9.29220000
_cell_length_b   22.57310000
_cell_length_c   15.91819047
_cell_angle_alpha   90.00000000
_cell_angle_beta   122.36604526
_cell_angle_gamma   90.00000000
_symmetry_Int_Tables_number   1
_chemical_formula_structural   CdH46C56S2N8(Cl2O3)2
_chemical_formula_sum   'Cd2 H92 C112 S4 N16 Cl8 O12'
_cell_volume   2820.18651306
_cell_formula_units_Z   2
loop_
 _symmetry_equiv_pos_site_id
 _symmetry_equiv_pos_as_xyz
  1  'x, y, z'
loop_
 _atom_site_type_symbol
 _atom_site_label
 _atom_site_symmetry_multiplicity
 _atom_site_fract_x
 _atom_site_fract_y
 _atom_site_fract_z
 _atom_site_occupancy
  Cd  Cd0  1  0.00000000  0.50000000  0.00000000  1
  Cd  Cd1  1  0.00000000  0.00000000  0.50000000  1
  H  H2  1  0.27416100  0.59701600  0.17970000  1
  H  H3  1  0.72583900  0.09701600  0.32030000  1
  H  H4  1  0.72583900  0.40298400  0.82030000  1
  H  H5  1  0.27416100  0.90298400  0.67970000  1
  H  H6  1  0.30793300  0.69100600  0.98461600  1
  H  H7  1  0.69206700  0.19100600  0.51538400  1
  H  H8  1  0.69206700  0.30899400  0.01538400  1
  H  H9  1  0.30793300  0.80899400  0.48461600  1
  H  H10  1  0.71637900  0.90406500  0.31366400  1
  H  H11  1  0.28362100  0.40406500  0.18633600  1
  H  H12  1  0.28362100  0.09593500  0.68633600  1
  H  H13  1  0.71637900  0.59593500  0.81366400  1
  H  H14  1  0.15146200  0.60106800  0.90385300  1
  H  H15  1  0.84853800  0.10106800  0.59614700  1
  H  H16  1  0.84853800  0.39893200  0.09614700  1
  H  H17  1  0.15146200  0.89893200  0.40385300  1
  H  H18  1  0.81235500  0.91013800  0.58475800  1
  H  H19  1  0.18764500  0.41013800  0.91524200  1
  H  H20  1  0.18764500  0.08986200  0.41524200  1
  H  H21  1  0.81235500  0.58986200  0.08475800  1
  H  H22  1  0.65381000  0.81817400  0.51320200  1
  H  H23  1  0.34619000  0.31817400  0.98679800  1
  H  H24  1  0.34619000  0.18182600  0.48679800  1
  H  H25  1  0.65381000  0.68182600  0.01320200  1
  H  H26  1  0.90457500  0.79147600  0.39837800  1
  H  H27  1  0.09542500  0.29147600  0.10162200  1
  H  H28  1  0.09542500  0.20852400  0.60162200  1
  H  H29  1  0.90457500  0.70852400  0.89837800  1
  H  H30  1  0.63284300  0.64049100  0.17160000  1
  H  H31  1  0.36715700  0.14049100  0.32840000  1
  H  H32  1  0.36715700  0.35950900  0.82840000  1
  H  H33  1  0.63284300  0.85950900  0.67160000  1
  H  H34  1  0.07188000  0.70983100  0.09992700  1
  H  H35  1  0.92812000  0.20983100  0.40007300  1
  H  H36  1  0.92812000  0.29016900  0.90007300  1
  H  H37  1  0.07188000  0.79016900  0.59992700  1
  H  H38  1  0.05946900  0.72678200  0.37155700  1
  H  H39  1  0.94053100  0.22678200  0.12844300  1
  H  H40  1  0.94053100  0.27321800  0.62844300  1
  H  H41  1  0.05946900  0.77321800  0.87155700  1
  H  H42  1  0.33702400  0.86637000  0.32257900  1
  H  H43  1  0.66297600  0.36637000  0.17742100  1
  H  H44  1  0.66297600  0.13363000  0.67742100  1
  H  H45  1  0.33702400  0.63363000  0.82257900  1
  H  H46  1  0.05382500  0.86051900  0.22459400  1
  H  H47  1  0.94617500  0.36051900  0.27540600  1
  H  H48  1  0.94617500  0.13948100  0.77540600  1
  H  H49  1  0.05382500  0.63948100  0.72459400  1
  H  H50  1  0.92051400  0.65173100  0.24672700  1
  H  H51  1  0.07948600  0.15173100  0.25327300  1
  H  H52  1  0.07948600  0.34826900  0.75327300  1
  H  H53  1  0.92051400  0.84826900  0.74672700  1
  H  H54  1  0.77167800  0.48438200  0.17999500  1
  H  H55  1  0.22832200  0.98438200  0.32000500  1
  H  H56  1  0.22832200  0.51561800  0.82000500  1
  H  H57  1  0.77167800  0.01561800  0.67999500  1
  H  H58  1  0.91983800  0.77942100  0.12291100  1
  H  H59  1  0.08016200  0.27942100  0.37708900  1
  H  H60  1  0.08016200  0.22057900  0.87708900  1
  H  H61  1  0.91983800  0.72057900  0.62291100  1
  H  H62  1  0.16785400  0.54933600  0.42898300  1
  H  H63  1  0.83214600  0.04933600  0.07101700  1
  H  H64  1  0.83214600  0.45066400  0.57101700  1
  H  H65  1  0.16785400  0.95066400  0.92898300  1
  H  H66  1  0.59632600  0.50180500  0.23995000  1
  H  H67  1  0.40367400  0.00180500  0.26005000  1
  H  H68  1  0.40367400  0.49819500  0.76005000  1
  H  H69  1  0.59632600  0.99819500  0.73995000  1
  H  H70  1  0.99218400  0.57813900  0.48227700  1
  H  H71  1  0.00781600  0.07813900  0.01772300  1
  H  H72  1  0.00781600  0.42186100  0.51772300  1
  H  H73  1  0.99218400  0.92186100  0.98227700  1
  H  H74  1  0.55830800  0.54295800  0.37161300  1
  H  H75  1  0.44169200  0.04295800  0.12838700  1
  H  H76  1  0.44169200  0.45704200  0.62838700  1
  H  H77  1  0.55830800  0.95704200  0.87161300  1
  H  H78  1  0.72201200  0.55638400  0.47588600  1
  H  H79  1  0.27798800  0.05638400  0.02411400  1
  H  H80  1  0.27798800  0.44361600  0.52411400  1
  H  H81  1  0.72201200  0.94361600  0.97588600  1
  H  H82  1  0.64280900  0.60582400  0.39405100  1
  H  H83  1  0.35719100  0.10582400  0.10594900  1
  H  H84  1  0.35719100  0.39417600  0.60594900  1
  H  H85  1  0.64280900  0.89417600  0.89405100  1
  H  H86  1  0.43095100  0.59795900  0.46355600  1
  H  H87  1  0.56904900  0.09795900  0.03644400  1
  H  H88  1  0.56904900  0.40204100  0.53644400  1
  H  H89  1  0.43095100  0.90204100  0.96355600  1
  H  H90  1  0.60432600  0.61337700  0.56258600  1
  H  H91  1  0.39567400  0.11337700  0.93741400  1
  H  H92  1  0.39567400  0.38662300  0.43741400  1
  H  H93  1  0.60432600  0.88662300  0.06258600  1
  C  C94  1  0.57200000  0.79560000  0.31580000  1
  C  C95  1  0.42800000  0.29560000  0.18420000  1
  C  C96  1  0.42800000  0.20440000  0.68420000  1
  C  C97  1  0.57200000  0.70440000  0.81580000  1
  C  C98  1  0.26480000  0.60880000  0.12100000  1
  C  C99  1  0.73520000  0.10880000  0.37900000  1
  C  C100  1  0.73520000  0.39120000  0.87900000  1
  C  C101  1  0.26480000  0.89120000  0.62100000  1
  C  C102  1  0.58510000  0.71040000  0.23200000  1
  C  C103  1  0.41490000  0.21040000  0.26800000  1
  C  C104  1  0.41490000  0.28960000  0.76800000  1
  C  C105  1  0.58510000  0.78960000  0.73200000  1
  C  C106  1  0.28350000  0.66070000  0.01460000  1
  C  C107  1  0.71650000  0.16070000  0.48540000  1
  C  C108  1  0.71650000  0.33930000  0.98540000  1
  C  C109  1  0.28350000  0.83930000  0.51460000  1
  C  C110  1  0.41330000  0.70410000  0.18290000  1
  C  C111  1  0.58670000  0.20410000  0.31710000  1
  C  C112  1  0.58670000  0.29590000  0.81710000  1
  C  C113  1  0.41330000  0.79590000  0.68290000  1
  C  C114  1  0.72250000  0.89420000  0.37220000  1
  C  C115  1  0.27750000  0.39420000  0.12780000  1
  C  C116  1  0.27750000  0.10580000  0.62780000  1
  C  C117  1  0.72250000  0.60580000  0.87220000  1
  C  C118  1  0.67010000  0.75740000  0.30180000  1
  C  C119  1  0.32990000  0.25740000  0.19820000  1
  C  C120  1  0.32990000  0.24260000  0.69820000  1
  C  C121  1  0.67010000  0.74260000  0.80180000  1
  C  C122  1  0.19690000  0.61120000  0.97010000  1
  C  C123  1  0.80310000  0.11120000  0.52990000  1
  C  C124  1  0.80310000  0.38880000  0.02990000  1
  C  C125  1  0.19690000  0.88880000  0.47010000  1
  C  C126  1  0.39040000  0.79340000  0.26600000  1
  C  C127  1  0.60960000  0.29340000  0.23400000  1
  C  C128  1  0.60960000  0.20660000  0.73400000  1
  C  C129  1  0.39040000  0.70660000  0.76600000  1
  C  C130  1  0.31110000  0.74400000  0.19690000  1
  C  C131  1  0.68890000  0.24400000  0.30310000  1
  C  C132  1  0.68890000  0.25600000  0.80310000  1
  C  C133  1  0.31110000  0.75600000  0.69690000  1
  C  C134  1  0.77300000  0.89670000  0.52080000  1
  C  C135  1  0.22700000  0.39670000  0.97920000  1
  C  C136  1  0.22700000  0.10330000  0.47920000  1
  C  C137  1  0.77300000  0.60330000  0.02080000  1
  C  C138  1  0.68600000  0.84560000  0.48270000  1
  C  C139  1  0.31400000  0.34560000  0.01730000  1
  C  C140  1  0.31400000  0.15440000  0.51730000  1
  C  C141  1  0.68600000  0.65440000  0.98270000  1
  C  C142  1  0.84900000  0.76130000  0.35210000  1
  C  C143  1  0.15100000  0.26130000  0.14790000  1
  C  C144  1  0.15100000  0.23870000  0.64790000  1
  C  C145  1  0.84900000  0.73870000  0.85210000  1
  C  C146  1  0.98610000  0.51270000  0.29810000  1
  C  C147  1  0.01390000  0.01270000  0.20190000  1
  C  C148  1  0.01390000  0.48730000  0.70190000  1
  C  C149  1  0.98610000  0.98730000  0.79810000  1
  C  C150  1  0.68640000  0.67160000  0.21610000  1
  C  C151  1  0.31360000  0.17160000  0.28390000  1
  C  C152  1  0.31360000  0.32840000  0.78390000  1
  C  C153  1  0.68640000  0.82840000  0.71610000  1
  C  C154  1  0.12840000  0.74090000  0.14380000  1
  C  C155  1  0.87160000  0.24090000  0.35620000  1
  C  C156  1  0.87160000  0.25910000  0.85620000  1
  C  C157  1  0.12840000  0.75910000  0.64380000  1
  C  C158  1  0.94140000  0.72340000  0.33560000  1
  C  C159  1  0.05860000  0.22340000  0.16440000  1
  C  C160  1  0.05860000  0.27660000  0.66440000  1
  C  C161  1  0.94140000  0.77660000  0.83560000  1
  C  C162  1  0.28690000  0.83570000  0.27670000  1
  C  C163  1  0.71310000  0.33570000  0.22330000  1
  C  C164  1  0.71310000  0.16430000  0.72330000  1
  C  C165  1  0.28690000  0.66430000  0.77670000  1
  C  C166  1  0.12010000  0.83090000  0.22120000  1
  C  C167  1  0.87990000  0.33090000  0.27880000  1
  C  C168  1  0.87990000  0.16910000  0.77880000  1
  C  C169  1  0.12010000  0.66910000  0.72120000  1
  C  C170  1  0.85850000  0.67690000  0.26200000  1
  C  C171  1  0.14150000  0.17690000  0.23800000  1
  C  C172  1  0.14150000  0.32310000  0.73800000  1
  C  C173  1  0.85850000  0.82310000  0.76200000  1
  C  C174  1  0.81750000  0.50110000  0.24270000  1
  C  C175  1  0.18250000  0.00110000  0.25730000  1
  C  C176  1  0.18250000  0.49890000  0.75730000  1
  C  C177  1  0.81750000  0.99890000  0.74270000  1
  C  C178  1  0.03780000  0.78260000  0.15680000  1
  C  C179  1  0.96220000  0.28260000  0.34320000  1
  C  C180  1  0.96220000  0.21740000  0.84320000  1
  C  C181  1  0.03780000  0.71740000  0.65680000  1
  C  C182  1  0.05180000  0.54130000  0.38980000  1
  C  C183  1  0.94820000  0.04130000  0.11020000  1
  C  C184  1  0.94820000  0.45870000  0.61020000  1
  C  C185  1  0.05180000  0.95870000  0.88980000  1
  C  C186  1  0.71010000  0.51330000  0.27650000  1
  C  C187  1  0.28990000  0.01330000  0.22350000  1
  C  C188  1  0.28990000  0.48670000  0.72350000  1
  C  C189  1  0.71010000  0.98670000  0.77650000  1
  C  C190  1  0.94790000  0.55760000  0.42270000  1
  C  C191  1  0.05210000  0.05760000  0.07730000  1
  C  C192  1  0.05210000  0.44240000  0.57730000  1
  C  C193  1  0.94790000  0.94240000  0.92270000  1
  C  C194  1  0.77800000  0.54330000  0.36680000  1
  C  C195  1  0.22200000  0.04330000  0.13320000  1
  C  C196  1  0.22200000  0.45670000  0.63320000  1
  C  C197  1  0.77800000  0.95670000  0.86680000  1
  C  C198  1  0.66440000  0.56410000  0.40580000  1
  C  C199  1  0.33560000  0.06410000  0.09420000  1
  C  C200  1  0.33560000  0.43590000  0.59420000  1
  C  C201  1  0.66440000  0.93590000  0.90580000  1
  C  C202  1  0.48890000  0.62700000  0.51640000  1
  C  C203  1  0.51110000  0.12700000  0.98360000  1
  C  C204  1  0.51110000  0.37300000  0.48360000  1
  C  C205  1  0.48890000  0.87300000  0.01640000  1
  S  S206  1  0.12518000  0.49707000  0.25971000  1
  S  S207  1  0.87482000  0.99707000  0.24029000  1
  S  S208  1  0.87482000  0.50293000  0.74029000  1
  S  S209  1  0.12518000  0.00293000  0.75971000  1
  N  N210  1  0.32980000  0.65900000  0.11160000  1
  N  N211  1  0.67020000  0.15900000  0.38840000  1
  N  N212  1  0.67020000  0.34100000  0.88840000  1
  N  N213  1  0.32980000  0.84100000  0.61160000  1
  N  N214  1  0.18640000  0.57760000  0.03900000  1
  N  N215  1  0.81360000  0.07760000  0.46100000  1
  N  N216  1  0.81360000  0.42240000  0.96100000  1
  N  N217  1  0.18640000  0.92240000  0.53900000  1
  N  N218  1  0.79620000  0.92610000  0.45410000  1
  N  N219  1  0.20380000  0.42610000  0.04590000  1
  N  N220  1  0.20380000  0.07390000  0.54590000  1
  N  N221  1  0.79620000  0.57390000  0.95410000  1
  N  N222  1  0.65580000  0.84380000  0.38720000  1
  N  N223  1  0.34420000  0.34380000  0.11280000  1
  N  N224  1  0.34420000  0.15620000  0.61280000  1
  N  N225  1  0.65580000  0.65620000  0.88720000  1
  Cl  Cl226  1  0.49080000  0.69243000  0.46990000  1
  Cl  Cl227  1  0.50920000  0.19243000  0.03010000  1
  Cl  Cl228  1  0.50920000  0.30757000  0.53010000  1
  Cl  Cl229  1  0.49080000  0.80757000  0.96990000  1
  Cl  Cl230  1  0.38010000  0.63660000  0.57800000  1
  Cl  Cl231  1  0.61990000  0.13660000  0.92200000  1
  Cl  Cl232  1  0.61990000  0.36340000  0.42200000  1
  Cl  Cl233  1  0.38010000  0.86340000  0.07800000  1
  O  O234  1  0.02790000  0.50310000  0.15320000  1
  O  O235  1  0.97210000  0.00310000  0.34680000  1
  O  O236  1  0.97210000  0.49690000  0.84680000  1
  O  O237  1  0.02790000  0.99690000  0.65320000  1
  O  O238  1  0.17480000  0.43580000  0.28600000  1
  O  O239  1  0.82520000  0.93580000  0.21400000  1
  O  O240  1  0.82520000  0.56420000  0.71400000  1
  O  O241  1  0.17480000  0.06420000  0.78600000  1
  O  O242  1  0.25620000  0.53820000  0.30610000  1
  O  O243  1  0.74380000  0.03820000  0.19390000  1
  O  O244  1  0.74380000  0.46180000  0.69390000  1
  O  O245  1  0.25620000  0.96180000  0.80610000  1
