# generated using pymatgen
data_InH8C4NO10
_symmetry_space_group_name_H-M   'P 1'
_cell_length_a   9.02500000
_cell_length_b   9.02500000
_cell_length_c   11.34300000
_cell_angle_alpha   90.00000000
_cell_angle_beta   90.00000000
_cell_angle_gamma   120.00000000
_symmetry_Int_Tables_number   1
_chemical_formula_structural   InH8C4NO10
_chemical_formula_sum   'In3 H24 C12 N3 O30'
_cell_volume   800.11605491
_cell_formula_units_Z   3
loop_
 _symmetry_equiv_pos_site_id
 _symmetry_equiv_pos_as_xyz
  1  'x, y, z'
loop_
 _atom_site_type_symbol
 _atom_site_label
 _atom_site_symmetry_multiplicity
 _atom_site_fract_x
 _atom_site_fract_y
 _atom_site_fract_z
 _atom_site_occupancy
  In  In0  1  0.50000000  0.50000000  0.33333333  1.0
  In  In1  1  0.50000000  0.00000000  0.00000000  1.0
  In  In2  1  0.00000000  0.50000000  0.66666667  1.0
  H  H3  1  0.10420000  0.07630000  0.94740000  1.0
  H  H4  1  0.92370000  0.02790000  0.61406667  1.0
  H  H5  1  0.97210000  0.89580000  0.28073333  1.0
  H  H6  1  0.07630000  0.10420000  0.71926667  1.0
  H  H7  1  0.02790000  0.92370000  0.05260000  1.0
  H  H8  1  0.89580000  0.97210000  0.38593333  1.0
  H  H9  1  0.89580000  0.92370000  0.94740000  1.0
  H  H10  1  0.07630000  0.97210000  0.61406667  1.0
  H  H11  1  0.02790000  0.10420000  0.28073333  1.0
  H  H12  1  0.92370000  0.89580000  0.71926667  1.0
  H  H13  1  0.97210000  0.07630000  0.05260000  1.0
  H  H14  1  0.10420000  0.02790000  0.38593333  1.0
  H  H15  1  0.35990000  0.09440000  0.48320000  1.0
  H  H16  1  0.90560000  0.26550000  0.14986667  1.0
  H  H17  1  0.73450000  0.64010000  0.81653333  1.0
  H  H18  1  0.09440000  0.35990000  0.18346667  1.0
  H  H19  1  0.26550000  0.90560000  0.51680000  1.0
  H  H20  1  0.64010000  0.73450000  0.85013333  1.0
  H  H21  1  0.64010000  0.90560000  0.48320000  1.0
  H  H22  1  0.09440000  0.73450000  0.14986667  1.0
  H  H23  1  0.26550000  0.35990000  0.81653333  1.0
  H  H24  1  0.90560000  0.64010000  0.18346667  1.0
  H  H25  1  0.73450000  0.09440000  0.51680000  1.0
  H  H26  1  0.35990000  0.26550000  0.85013333  1.0
  C  C27  1  0.21095000  0.42190000  0.50000000  1.0
  C  C28  1  0.57810000  0.78905000  0.16666667  1.0
  C  C29  1  0.21095000  0.78905000  0.83333333  1.0
  C  C30  1  0.42190000  0.21095000  0.16666667  1.0
  C  C31  1  0.78905000  0.57810000  0.50000000  1.0
  C  C32  1  0.78905000  0.21095000  0.83333333  1.0
  C  C33  1  0.30975000  0.61950000  0.50000000  1.0
  C  C34  1  0.38050000  0.69025000  0.16666667  1.0
  C  C35  1  0.30975000  0.69025000  0.83333333  1.0
  C  C36  1  0.61950000  0.30975000  0.16666667  1.0
  C  C37  1  0.69025000  0.38050000  0.50000000  1.0
  C  C38  1  0.69025000  0.30975000  0.83333333  1.0
  N  N39  1  0.00000000  0.00000000  0.00000000  1.0
  N  N40  1  0.00000000  0.00000000  0.66666667  1.0
  N  N41  1  0.00000000  0.00000000  0.33333333  1.0
  O  O42  1  0.26810000  0.34680000  0.43860000  1.0
  O  O43  1  0.65320000  0.92130000  0.10526667  1.0
  O  O44  1  0.07870000  0.73190000  0.77193333  1.0
  O  O45  1  0.34680000  0.26810000  0.22806667  1.0
  O  O46  1  0.92130000  0.65320000  0.56140000  1.0
  O  O47  1  0.73190000  0.07870000  0.89473333  1.0
  O  O48  1  0.73190000  0.65320000  0.43860000  1.0
  O  O49  1  0.34680000  0.07870000  0.10526667  1.0
  O  O50  1  0.92130000  0.26810000  0.77193333  1.0
  O  O51  1  0.65320000  0.73190000  0.22806667  1.0
  O  O52  1  0.07870000  0.34680000  0.56140000  1.0
  O  O53  1  0.26810000  0.92130000  0.89473333  1.0
  O  O54  1  0.44690000  0.68830000  0.44460000  1.0
  O  O55  1  0.31170000  0.75860000  0.11126667  1.0
  O  O56  1  0.24140000  0.55310000  0.77793333  1.0
  O  O57  1  0.68830000  0.44690000  0.22206667  1.0
  O  O58  1  0.75860000  0.31170000  0.55540000  1.0
  O  O59  1  0.55310000  0.24140000  0.88873333  1.0
  O  O60  1  0.55310000  0.31170000  0.44460000  1.0
  O  O61  1  0.68830000  0.24140000  0.11126667  1.0
  O  O62  1  0.75860000  0.44690000  0.77793333  1.0
  O  O63  1  0.31170000  0.55310000  0.22206667  1.0
  O  O64  1  0.24140000  0.68830000  0.55540000  1.0
  O  O65  1  0.44690000  0.75860000  0.88873333  1.0
  O  O66  1  0.24800000  0.00000000  0.50000000  1.0
  O  O67  1  0.00000000  0.24800000  0.16666667  1.0
  O  O68  1  0.75200000  0.75200000  0.83333333  1.0
  O  O69  1  0.75200000  0.00000000  0.50000000  1.0
  O  O70  1  0.00000000  0.75200000  0.16666667  1.0
  O  O71  1  0.24800000  0.24800000  0.83333333  1.0
