# generated using pymatgen
data_LiInH21C34O9
_symmetry_space_group_name_H-M   'P 1'
_cell_length_a   23.11850000
_cell_length_b   23.11850000
_cell_length_c   9.94400000
_cell_angle_alpha   101.77900000
_cell_angle_beta   101.77900000
_cell_angle_gamma   24.31620000
_symmetry_Int_Tables_number   1
_chemical_formula_structural   LiInH21C34O9
_chemical_formula_sum   'Li2 In2 H42 C68 O18'
_cell_volume   2140.20628435
_cell_formula_units_Z   2
loop_
 _symmetry_equiv_pos_site_id
 _symmetry_equiv_pos_as_xyz
  1  'x, y, z'
loop_
 _atom_site_type_symbol
 _atom_site_label
 _atom_site_symmetry_multiplicity
 _atom_site_fract_x
 _atom_site_fract_y
 _atom_site_fract_z
 _atom_site_occupancy
  Li  Li1  1  0.96656000  0.98128000  0.56346000  1.0
  Li  Li2  1  0.03618000  0.01551000  0.43773000  1.0
  In  In1  1  0.90584000  0.92395000  0.54528000  1.0
  In  In2  1  0.09696000  0.07278000  0.45577000  1.0
  H  H1  1  0.26680000  0.72670000  0.65394000  1.0
  H  H2  1  0.31890000  0.76004000  0.80813000  1.0
  H  H3  1  0.37137000  0.81727000  0.85254000  1.0
  H  H4  1  0.41876000  0.85276000  0.72614000  1.0
  H  H5  1  0.47121000  0.91090000  0.77293000  1.0
  H  H6  1  0.83396000  0.63571000  0.08203000  1.0
  H  H7  1  0.89831000  0.67981000  0.12788000  1.0
  H  H8  1  0.66056000  0.91917000  0.76178000  1.0
  H  H9  1  0.60452000  0.86468000  0.70981000  1.0
  H  H10  1  0.29826000  0.70946000  0.28693000  1.0
  H  H11  1  0.26251000  0.65660000  0.33319000  1.0
  H  H12  1  0.21084000  0.59930000  0.28402000  1.0
  H  H13  1  0.17799000  0.54644000  0.09518000  1.0
  H  H14  1  0.12243000  0.49263000  0.05508000  1.0
  H  H15  1  0.73590000  0.27006000  0.34677000  1.0
  H  H16  1  0.68337000  0.23723000  0.19220000  1.0
  H  H17  1  0.63097000  0.17990000  0.14765000  1.0
  H  H18  1  0.58407000  0.14386000  0.27400000  1.0
  H  H19  1  0.53146000  0.08589000  0.22724000  1.0
  H  H20  1  0.16745000  0.36240000  0.91958000  1.0
  H  H21  1  0.10331000  0.31810000  0.87366000  1.0
  H  H22  1  0.34256000  0.07724000  0.23885000  1.0
  H  H23  1  0.39846000  0.13185000  0.29092000  1.0
  H  H24  1  0.70426000  0.28754000  0.71477000  1.0
  H  H25  1  0.74020000  0.34018000  0.66832000  1.0
  H  H26  1  0.79191000  0.39746000  0.71753000  1.0
  H  H27  1  0.82405000  0.45106000  0.90674000  1.0
  H  H28  1  0.87944000  0.50506000  0.94702000  1.0
  H  H29  1  0.40357000  0.42186000  0.56943000  1.0
  H  H30  1  0.81267000  0.84695000  0.20438000  1.0
  H  H31  1  0.91491000  0.91702000  0.09445000  1.0
  H  H32  1  0.82544000  0.84523000  0.77567000  1.0
  H  H33  1  0.59913000  0.57495000  0.43153000  1.0
  H  H34  1  0.18933000  0.15062000  0.79661000  1.0
  H  H35  1  0.08875000  0.07881000  0.90655000  1.0
  H  H36  1  0.17733000  0.15145000  0.22535000  1.0
  H  H37  1  0.94754000  0.11526000  0.82555000  1.0
  H  H38  1  0.05547000  0.99544000  0.71177000  1.0
  H  H39  1  0.06441000  0.96364000  0.84877000  1.0
  H  H40  1  0.97461000  0.98108000  0.30422000  1.0
  H  H41  1  0.97790000  0.01748000  0.19347000  1.0
  H  H42  1  0.06585000  0.87916000  0.17544000  1.0
  C  C1  1  0.31601000  0.59009000  0.61832000  1.0
  C  C2  1  0.35058000  0.61882000  0.65478000  1.0
  C  C3  1  0.42183000  0.67999000  0.78463000  1.0
  C  C4  1  0.45175000  0.71332000  0.81115000  1.0
  C  C5  1  0.51880000  0.77724000  0.77605000  1.0
  C  C6  1  0.55001000  0.80933000  0.80073000  1.0
  C  C7  1  0.79742000  0.69527000  0.00918000  1.0
  C  C8  1  0.83276000  0.72285000  0.03666000  1.0
  C  C9  1  0.70142000  0.85479000  0.83095000  1.0
  C  C10  1  0.66720000  0.82550000  0.80238000  1.0
  C  C11  1  0.16265000  0.71409000  0.58779000  1.0
  C  C12  1  0.43213000  0.66153000  0.36650000  1.0
  C  C13  1  0.40544000  0.62552000  0.31696000  1.0
  C  C14  1  0.34431000  0.55264000  0.29062000  1.0
  C  C15  1  0.31422000  0.51964000  0.26289000  1.0
  C  C16  1  0.25543000  0.44625000  0.12616000  1.0
  C  C17  1  0.22400000  0.41467000  0.10216000  1.0
  C  C18  1  0.30609000  0.81631000  0.39238000  1.0
  C  C19  1  0.68673000  0.40665000  0.38279000  1.0
  C  C20  1  0.65213000  0.37797000  0.34616000  1.0
  C  C21  1  0.58058000  0.31710000  0.21598000  1.0
  C  C22  1  0.55067000  0.28375000  0.18942000  1.0
  C  C23  1  0.48383000  0.21961000  0.22443000  1.0
  C  C24  1  0.45251000  0.18763000  0.19986000  1.0
  C  C25  1  0.20440000  0.30244000  0.99222000  1.0
  C  C26  1  0.16912000  0.27479000  0.96472000  1.0
  C  C27  1  0.30130000  0.14201000  0.16992000  1.0
  C  C28  1  0.33547000  0.17135000  0.19853000  1.0
  C  C29  1  0.84013000  0.28262000  0.41328000  1.0
  C  C30  1  0.57058000  0.33527000  0.63469000  1.0
  C  C31  1  0.59717000  0.37139000  0.68439000  1.0
  C  C32  1  0.65832000  0.44425000  0.71063000  1.0
  C  C33  1  0.68842000  0.47722000  0.73836000  1.0
  C  C34  1  0.74678000  0.55107000  0.87531000  1.0
  C  C35  1  0.77810000  0.58276000  0.89945000  1.0
  C  C36  1  0.69665000  0.18047000  0.60877000  1.0
  C  C37  1  0.42754000  0.44653000  0.60550000  1.0
  C  C38  1  0.48978000  0.51165000  0.69131000  1.0
  C  C39  1  0.52383000  0.54545000  0.73061000  1.0
  C  C40  1  0.58491000  0.61270000  0.78705000  1.0
  C  C41  1  0.61680000  0.64789000  0.81343000  1.0
  C  C42  1  0.68047000  0.71219000  0.86264000  1.0
  C  C43  1  0.71479000  0.74534000  0.89146000  1.0
  C  C44  1  0.78476000  0.80387000  0.94889000  1.0
  C  C45  1  0.81822000  0.83808000  0.98504000  1.0
  C  C46  1  0.83285000  0.85272000  0.12471000  1.0
  C  C47  1  0.86954000  0.87887000  0.16393000  1.0
  C  C48  1  0.88781000  0.89532000  0.06285000  1.0
  C  C49  1  0.86922000  0.88671000  0.92227000  1.0
  C  C50  1  0.83604000  0.85608000  0.88368000  1.0
  C  C51  1  0.88444000  0.89405000  0.31056000  1.0
  C  C52  1  0.88456000  0.91096000  0.81963000  1.0
  C  C53  1  0.57520000  0.55024000  0.39562000  1.0
  C  C54  1  0.51285000  0.48523000  0.30974000  1.0
  C  C55  1  0.47873000  0.45150000  0.27037000  1.0
  C  C56  1  0.41762000  0.38427000  0.21390000  1.0
  C  C57  1  0.38569000  0.34913000  0.18750000  1.0
  C  C58  1  0.32181000  0.28504000  0.13848000  1.0
  C  C59  1  0.28743000  0.25194000  0.10970000  1.0
  C  C60  1  0.21759000  0.19330000  0.05221000  1.0
  C  C61  1  0.18426000  0.15895000  0.01601000  1.0
  C  C62  1  0.16951000  0.14447000  0.87632000  1.0
  C  C63  1  0.13320000  0.11794000  0.83707000  1.0
  C  C64  1  0.11537000  0.10101000  0.93814000  1.0
  C  C65  1  0.13382000  0.10973000  0.07872000  1.0
  C  C66  1  0.16672000  0.14064000  0.11732000  1.0
  C  C67  1  0.11832000  0.10279000  0.69044000  1.0
  C  C68  1  0.11855000  0.08540000  0.18138000  1.0
  O  O1  1  0.09734000  0.73903000  0.63798000  1.0
  O  O2  1  0.07427000  0.81920000  0.50198000  1.0
  O  O3  1  0.30817000  0.86394000  0.46010000  1.0
  O  O4  1  0.16987000  0.92593000  0.34533000  1.0
  O  O5  1  0.90543000  0.25762000  0.36289000  1.0
  O  O6  1  0.92853000  0.17754000  0.49922000  1.0
  O  O7  1  0.69460000  0.13283000  0.54090000  1.0
  O  O8  1  0.83287000  0.07082000  0.65586000  1.0
  O  O9  1  0.88318000  0.86853000  0.40919000  1.0
  O  O10  1  0.89878000  0.93574000  0.35013000  1.0
  O  O11  1  0.90582000  0.94444000  0.86091000  1.0
  O  O12  1  0.87611000  0.89507000  0.67749000  1.0
  O  O13  1  0.11955000  0.12833000  0.59179000  1.0
  O  O14  1  0.10403000  0.06106000  0.65086000  1.0
  O  O15  1  0.09770000  0.05152000  0.14015000  1.0
  O  O16  1  0.12652000  0.10180000  0.32348000  1.0
  O  O17  1  0.99657000  0.03492000  0.77822000  1.0
  O  O18  1  0.97322000  0.98009000  0.20367000  1.0
