# generated using pymatgen
data_CuH17C21N3O8
_symmetry_space_group_name_H-M   'P 1'
_cell_length_a   7.98310000
_cell_length_b   17.46550000
_cell_length_c   31.56280000
_cell_angle_alpha   90.00000000
_cell_angle_beta   90.00000000
_cell_angle_gamma   90.00000000
_symmetry_Int_Tables_number   1
_chemical_formula_structural   CuH17C21N3O8
_chemical_formula_sum   'Cu8 H136 C168 N24 O64'
_cell_volume   4400.76437179
_cell_formula_units_Z   8
loop_
 _symmetry_equiv_pos_site_id
 _symmetry_equiv_pos_as_xyz
  1  'x, y, z'
loop_
 _atom_site_type_symbol
 _atom_site_label
 _atom_site_symmetry_multiplicity
 _atom_site_fract_x
 _atom_site_fract_y
 _atom_site_fract_z
 _atom_site_occupancy
  Cu  Cu1  1  0.16719000  0.23565000  0.58734000  1.0
  Cu  Cu2  1  0.33281000  0.26435000  0.08734000  1.0
  Cu  Cu3  1  0.83281000  0.73565000  0.58734000  1.0
  Cu  Cu4  1  0.66719000  0.76435000  0.08734000  1.0
  Cu  Cu5  1  0.16719000  0.26435000  0.41266000  1.0
  Cu  Cu6  1  0.33281000  0.23565000  0.91266000  1.0
  Cu  Cu7  1  0.83281000  0.76435000  0.41266000  1.0
  Cu  Cu8  1  0.66719000  0.73565000  0.91266000  1.0
  H  H1  1  0.40980000  0.33290000  0.56590000  1.0
  H  H2  1  0.40560000  0.27950000  0.53340000  1.0
  H  H3  1  0.05760000  0.98750000  0.57580000  1.0
  H  H4  1  0.19190000  0.82150000  0.49470000  1.0
  H  H5  1  0.34410000  0.03830000  0.47450000  1.0
  H  H6  1  0.47380000  0.93790000  0.43580000  1.0
  H  H7  1  0.44650000  0.85260000  0.44950000  1.0
  H  H8  1  0.31370000  0.77330000  0.40150000  1.0
  H  H9  1  0.17320000  0.75460000  0.33800000  1.0
  H  H10  1  0.09150000  0.97830000  0.33100000  1.0
  H  H11  1  0.23230000  0.99470000  0.39290000  1.0
  H  H12  1  0.00100000  0.90600000  0.27240000  1.0
  H  H13  1  0.05720000  0.75180000  0.27470000  1.0
  H  H14  1  0.91820000  0.67830000  0.22080000  1.0
  H  H15  1  0.78660000  0.66960000  0.15650000  1.0
  H  H16  1  0.80090000  0.88990000  0.14090000  1.0
  H  H17  1  0.93340000  0.90780000  0.20420000  1.0
  H  H18  1  0.09020000  0.16710000  0.06590000  1.0
  H  H19  1  0.09440000  0.22050000  0.03340000  1.0
  H  H20  1  0.44240000  0.51250000  0.07580000  1.0
  H  H21  1  0.30810000  0.67850000  0.99470000  1.0
  H  H22  1  0.15590000  0.46170000  0.97450000  1.0
  H  H23  1  0.02620000  0.56210000  0.93580000  1.0
  H  H24  1  0.05350000  0.64740000  0.94950000  1.0
  H  H25  1  0.18630000  0.72670000  0.90150000  1.0
  H  H26  1  0.32680000  0.74540000  0.83800000  1.0
  H  H27  1  0.40850000  0.52170000  0.83100000  1.0
  H  H28  1  0.26770000  0.50530000  0.89290000  1.0
  H  H29  1  0.49900000  0.59400000  0.77240000  1.0
  H  H30  1  0.44280000  0.74820000  0.77470000  1.0
  H  H31  1  0.58180000  0.82170000  0.72080000  1.0
  H  H32  1  0.71340000  0.83040000  0.65650000  1.0
  H  H33  1  0.69910000  0.61010000  0.64090000  1.0
  H  H34  1  0.56660000  0.59220000  0.70420000  1.0
  H  H35  1  0.59020000  0.83290000  0.56590000  1.0
  H  H36  1  0.59440000  0.77950000  0.53340000  1.0
  H  H37  1  0.94240000  0.48750000  0.57580000  1.0
  H  H38  1  0.80810000  0.32150000  0.49470000  1.0
  H  H39  1  0.65590000  0.53830000  0.47450000  1.0
  H  H40  1  0.52620000  0.43790000  0.43580000  1.0
  H  H41  1  0.55350000  0.35260000  0.44950000  1.0
  H  H42  1  0.68630000  0.27330000  0.40150000  1.0
  H  H43  1  0.82680000  0.25460000  0.33800000  1.0
  H  H44  1  0.90850000  0.47830000  0.33100000  1.0
  H  H45  1  0.76770000  0.49470000  0.39290000  1.0
  H  H46  1  0.99900000  0.40600000  0.27240000  1.0
  H  H47  1  0.94280000  0.25180000  0.27470000  1.0
  H  H48  1  0.08180000  0.17830000  0.22080000  1.0
  H  H49  1  0.21340000  0.16960000  0.15650000  1.0
  H  H50  1  0.19910000  0.38990000  0.14090000  1.0
  H  H51  1  0.06660000  0.40780000  0.20420000  1.0
  H  H52  1  0.90980000  0.66710000  0.06590000  1.0
  H  H53  1  0.90560000  0.72050000  0.03340000  1.0
  H  H54  1  0.55760000  0.01250000  0.07580000  1.0
  H  H55  1  0.69190000  0.17850000  0.99470000  1.0
  H  H56  1  0.84410000  0.96170000  0.97450000  1.0
  H  H57  1  0.97380000  0.06210000  0.93580000  1.0
  H  H58  1  0.94650000  0.14740000  0.94950000  1.0
  H  H59  1  0.81370000  0.22670000  0.90150000  1.0
  H  H60  1  0.67320000  0.24540000  0.83800000  1.0
  H  H61  1  0.59150000  0.02170000  0.83100000  1.0
  H  H62  1  0.73230000  0.00530000  0.89290000  1.0
  H  H63  1  0.50100000  0.09400000  0.77240000  1.0
  H  H64  1  0.55720000  0.24820000  0.77470000  1.0
  H  H65  1  0.41820000  0.32170000  0.72080000  1.0
  H  H66  1  0.28660000  0.33040000  0.65650000  1.0
  H  H67  1  0.30090000  0.11010000  0.64090000  1.0
  H  H68  1  0.43340000  0.09220000  0.70420000  1.0
  H  H69  1  0.40980000  0.16710000  0.43410000  1.0
  H  H70  1  0.40560000  0.22050000  0.46660000  1.0
  H  H71  1  0.05760000  0.51250000  0.42420000  1.0
  H  H72  1  0.19190000  0.67850000  0.50530000  1.0
  H  H73  1  0.34410000  0.46170000  0.52550000  1.0
  H  H74  1  0.47380000  0.56210000  0.56420000  1.0
  H  H75  1  0.44650000  0.64740000  0.55050000  1.0
  H  H76  1  0.31370000  0.72670000  0.59850000  1.0
  H  H77  1  0.17320000  0.74540000  0.66200000  1.0
  H  H78  1  0.09150000  0.52170000  0.66900000  1.0
  H  H79  1  0.23230000  0.50530000  0.60710000  1.0
  H  H80  1  0.00100000  0.59400000  0.72760000  1.0
  H  H81  1  0.05720000  0.74820000  0.72530000  1.0
  H  H82  1  0.91820000  0.82170000  0.77920000  1.0
  H  H83  1  0.78660000  0.83040000  0.84350000  1.0
  H  H84  1  0.80090000  0.61010000  0.85910000  1.0
  H  H85  1  0.93340000  0.59220000  0.79580000  1.0
  H  H86  1  0.09020000  0.33290000  0.93410000  1.0
  H  H87  1  0.09440000  0.27950000  0.96660000  1.0
  H  H88  1  0.44240000  0.98750000  0.92420000  1.0
  H  H89  1  0.30810000  0.82150000  0.00530000  1.0
  H  H90  1  0.15590000  0.03830000  0.02550000  1.0
  H  H91  1  0.02620000  0.93790000  0.06420000  1.0
  H  H92  1  0.05350000  0.85260000  0.05050000  1.0
  H  H93  1  0.18630000  0.77330000  0.09850000  1.0
  H  H94  1  0.32680000  0.75460000  0.16200000  1.0
  H  H95  1  0.40850000  0.97830000  0.16900000  1.0
  H  H96  1  0.26770000  0.99470000  0.10710000  1.0
  H  H97  1  0.49900000  0.90600000  0.22760000  1.0
  H  H98  1  0.44280000  0.75180000  0.22530000  1.0
  H  H99  1  0.58180000  0.67830000  0.27920000  1.0
  H  H100  1  0.71340000  0.66960000  0.34350000  1.0
  H  H101  1  0.69910000  0.88990000  0.35910000  1.0
  H  H102  1  0.56660000  0.90780000  0.29580000  1.0
  H  H103  1  0.59020000  0.66710000  0.43410000  1.0
  H  H104  1  0.59440000  0.72050000  0.46660000  1.0
  H  H105  1  0.94240000  0.01250000  0.42420000  1.0
  H  H106  1  0.80810000  0.17850000  0.50530000  1.0
  H  H107  1  0.65590000  0.96170000  0.52550000  1.0
  H  H108  1  0.52620000  0.06210000  0.56420000  1.0
  H  H109  1  0.55350000  0.14740000  0.55050000  1.0
  H  H110  1  0.68630000  0.22670000  0.59850000  1.0
  H  H111  1  0.82680000  0.24540000  0.66200000  1.0
  H  H112  1  0.90850000  0.02170000  0.66900000  1.0
  H  H113  1  0.76770000  0.00530000  0.60710000  1.0
  H  H114  1  0.99900000  0.09400000  0.72760000  1.0
  H  H115  1  0.94280000  0.24820000  0.72530000  1.0
  H  H116  1  0.08180000  0.32170000  0.77920000  1.0
  H  H117  1  0.21340000  0.33040000  0.84350000  1.0
  H  H118  1  0.19910000  0.11010000  0.85910000  1.0
  H  H119  1  0.06660000  0.09220000  0.79580000  1.0
  H  H120  1  0.90980000  0.83290000  0.93410000  1.0
  H  H121  1  0.90560000  0.77950000  0.96660000  1.0
  H  H122  1  0.55760000  0.48750000  0.92420000  1.0
  H  H123  1  0.69190000  0.32150000  0.00530000  1.0
  H  H124  1  0.84410000  0.53830000  0.02550000  1.0
  H  H125  1  0.97380000  0.43790000  0.06420000  1.0
  H  H126  1  0.94650000  0.35260000  0.05050000  1.0
  H  H127  1  0.81370000  0.27330000  0.09850000  1.0
  H  H128  1  0.67320000  0.25460000  0.16200000  1.0
  H  H129  1  0.59150000  0.47830000  0.16900000  1.0
  H  H130  1  0.73230000  0.49470000  0.10710000  1.0
  H  H131  1  0.50100000  0.40600000  0.22760000  1.0
  H  H132  1  0.55720000  0.25180000  0.22530000  1.0
  H  H133  1  0.41820000  0.17830000  0.27920000  1.0
  H  H134  1  0.28660000  0.16960000  0.34350000  1.0
  H  H135  1  0.30090000  0.38990000  0.35910000  1.0
  H  H136  1  0.43340000  0.40780000  0.29580000  1.0
  C  C1  1  0.20510000  0.10940000  0.53896000  1.0
  C  C2  1  0.20000000  0.02640000  0.52699000  1.0
  C  C3  1  0.11300000  0.97220000  0.55135000  1.0
  C  C4  1  0.10910000  0.89570000  0.53911000  1.0
  C  C5  1  0.19470000  0.87260000  0.50293000  1.0
  C  C6  1  0.28510000  0.92600000  0.47889000  1.0
  C  C7  1  0.28600000  0.00270000  0.49076000  1.0
  C  C8  1  0.01000000  0.83810000  0.56271000  1.0
  C  C9  1  0.38920000  0.89960000  0.44179000  1.0
  C  C10  1  0.26980000  0.81490000  0.38685000  1.0
  C  C11  1  0.18610000  0.80380000  0.34880000  1.0
  C  C12  1  0.12190000  0.86570000  0.32699000  1.0
  C  C13  1  0.13800000  0.93610000  0.34460000  1.0
  C  C14  1  0.22100000  0.94580000  0.38163000  1.0
  C  C15  1  0.03980000  0.86070000  0.28450000  1.0
  C  C16  1  0.01850000  0.79720000  0.26280000  1.0
  C  C17  1  0.93830000  0.79320000  0.22136000  1.0
  C  C18  1  0.89480000  0.72250000  0.20550000  1.0
  C  C19  1  0.81610000  0.71780000  0.16660000  1.0
  C  C20  1  0.82460000  0.84730000  0.15746000  1.0
  C  C21  1  0.90340000  0.85880000  0.19550000  1.0
  C  C22  1  0.29490000  0.39060000  0.03896000  1.0
  C  C23  1  0.30000000  0.47360000  0.02699000  1.0
  C  C24  1  0.38700000  0.52780000  0.05135000  1.0
  C  C25  1  0.39090000  0.60430000  0.03911000  1.0
  C  C26  1  0.30530000  0.62740000  0.00293000  1.0
  C  C27  1  0.21490000  0.57400000  0.97889000  1.0
  C  C28  1  0.21400000  0.49730000  0.99076000  1.0
  C  C29  1  0.49000000  0.66190000  0.06271000  1.0
  C  C30  1  0.11080000  0.60040000  0.94179000  1.0
  C  C31  1  0.23020000  0.68510000  0.88685000  1.0
  C  C32  1  0.31390000  0.69620000  0.84880000  1.0
  C  C33  1  0.37810000  0.63430000  0.82699000  1.0
  C  C34  1  0.36200000  0.56390000  0.84460000  1.0
  C  C35  1  0.27900000  0.55420000  0.88163000  1.0
  C  C36  1  0.46020000  0.63930000  0.78450000  1.0
  C  C37  1  0.48150000  0.70280000  0.76280000  1.0
  C  C38  1  0.56170000  0.70680000  0.72136000  1.0
  C  C39  1  0.60520000  0.77750000  0.70550000  1.0
  C  C40  1  0.68390000  0.78220000  0.66666667  1.0
  C  C41  1  0.67540000  0.65270000  0.65746000  1.0
  C  C42  1  0.59660000  0.64120000  0.69550000  1.0
  C  C43  1  0.79490000  0.60940000  0.53896000  1.0
  C  C44  1  0.80000000  0.52640000  0.52699000  1.0
  C  C45  1  0.88700000  0.47220000  0.55135000  1.0
  C  C46  1  0.89090000  0.39570000  0.53911000  1.0
  C  C47  1  0.80530000  0.37260000  0.50293000  1.0
  C  C48  1  0.71490000  0.42600000  0.47889000  1.0
  C  C49  1  0.71400000  0.50270000  0.49076000  1.0
  C  C50  1  0.99000000  0.33810000  0.56271000  1.0
  C  C51  1  0.61080000  0.39960000  0.44179000  1.0
  C  C52  1  0.73020000  0.31490000  0.38685000  1.0
  C  C53  1  0.81390000  0.30380000  0.34880000  1.0
  C  C54  1  0.87810000  0.36570000  0.32699000  1.0
  C  C55  1  0.86200000  0.43610000  0.34460000  1.0
  C  C56  1  0.77900000  0.44580000  0.38163000  1.0
  C  C57  1  0.96020000  0.36070000  0.28450000  1.0
  C  C58  1  0.98150000  0.29720000  0.26280000  1.0
  C  C59  1  0.06170000  0.29320000  0.22136000  1.0
  C  C60  1  0.10520000  0.22250000  0.20550000  1.0
  C  C61  1  0.18390000  0.21780000  0.16660000  1.0
  C  C62  1  0.17540000  0.34730000  0.15746000  1.0
  C  C63  1  0.09660000  0.35880000  0.19550000  1.0
  C  C64  1  0.70510000  0.89060000  0.03896000  1.0
  C  C65  1  0.70000000  0.97360000  0.02699000  1.0
  C  C66  1  0.61300000  0.02780000  0.05135000  1.0
  C  C67  1  0.60910000  0.10430000  0.03911000  1.0
  C  C68  1  0.69470000  0.12740000  0.00293000  1.0
  C  C69  1  0.78510000  0.07400000  0.97889000  1.0
  C  C70  1  0.78600000  0.99730000  0.99076000  1.0
  C  C71  1  0.51000000  0.16190000  0.06271000  1.0
  C  C72  1  0.88920000  0.10040000  0.94179000  1.0
  C  C73  1  0.76980000  0.18510000  0.88685000  1.0
  C  C74  1  0.68610000  0.19620000  0.84880000  1.0
  C  C75  1  0.62190000  0.13430000  0.82699000  1.0
  C  C76  1  0.63800000  0.06390000  0.84460000  1.0
  C  C77  1  0.72100000  0.05420000  0.88163000  1.0
  C  C78  1  0.53980000  0.13930000  0.78450000  1.0
  C  C79  1  0.51850000  0.20280000  0.76280000  1.0
  C  C80  1  0.43830000  0.20680000  0.72136000  1.0
  C  C81  1  0.39480000  0.27750000  0.70550000  1.0
  C  C82  1  0.31610000  0.28220000  0.66666667  1.0
  C  C83  1  0.32460000  0.15270000  0.65746000  1.0
  C  C84  1  0.40340000  0.14120000  0.69550000  1.0
  C  C85  1  0.20510000  0.39060000  0.46104000  1.0
  C  C86  1  0.20000000  0.47360000  0.47301000  1.0
  C  C87  1  0.11300000  0.52780000  0.44865000  1.0
  C  C88  1  0.10910000  0.60430000  0.46089000  1.0
  C  C89  1  0.19470000  0.62740000  0.49707000  1.0
  C  C90  1  0.28510000  0.57400000  0.52111000  1.0
  C  C91  1  0.28600000  0.49730000  0.50924000  1.0
  C  C92  1  0.01000000  0.66190000  0.43729000  1.0
  C  C93  1  0.38920000  0.60040000  0.55821000  1.0
  C  C94  1  0.26980000  0.68510000  0.61315000  1.0
  C  C95  1  0.18610000  0.69620000  0.65120000  1.0
  C  C96  1  0.12190000  0.63430000  0.67301000  1.0
  C  C97  1  0.13800000  0.56390000  0.65540000  1.0
  C  C98  1  0.22100000  0.55420000  0.61837000  1.0
  C  C99  1  0.03980000  0.63930000  0.71550000  1.0
  C  C100  1  0.01850000  0.70280000  0.73720000  1.0
  C  C101  1  0.93830000  0.70680000  0.77864000  1.0
  C  C102  1  0.89480000  0.77750000  0.79450000  1.0
  C  C103  1  0.81610000  0.78220000  0.83340000  1.0
  C  C104  1  0.82460000  0.65270000  0.84254000  1.0
  C  C105  1  0.90340000  0.64120000  0.80450000  1.0
  C  C106  1  0.29490000  0.10940000  0.96104000  1.0
  C  C107  1  0.30000000  0.02640000  0.97301000  1.0
  C  C108  1  0.38700000  0.97220000  0.94865000  1.0
  C  C109  1  0.39090000  0.89570000  0.96089000  1.0
  C  C110  1  0.30530000  0.87260000  0.99707000  1.0
  C  C111  1  0.21490000  0.92600000  0.02111000  1.0
  C  C112  1  0.21400000  0.00270000  0.00924000  1.0
  C  C113  1  0.49000000  0.83810000  0.93729000  1.0
  C  C114  1  0.11080000  0.89960000  0.05821000  1.0
  C  C115  1  0.23020000  0.81490000  0.11315000  1.0
  C  C116  1  0.31390000  0.80380000  0.15120000  1.0
  C  C117  1  0.37810000  0.86570000  0.17301000  1.0
  C  C118  1  0.36200000  0.93610000  0.15540000  1.0
  C  C119  1  0.27900000  0.94580000  0.11837000  1.0
  C  C120  1  0.46020000  0.86070000  0.21550000  1.0
  C  C121  1  0.48150000  0.79720000  0.23720000  1.0
  C  C122  1  0.56170000  0.79320000  0.27864000  1.0
  C  C123  1  0.60520000  0.72250000  0.29450000  1.0
  C  C124  1  0.68390000  0.71780000  0.33340000  1.0
  C  C125  1  0.67540000  0.84730000  0.34254000  1.0
  C  C126  1  0.59660000  0.85880000  0.30450000  1.0
  C  C127  1  0.79490000  0.89060000  0.46104000  1.0
  C  C128  1  0.80000000  0.97360000  0.47301000  1.0
  C  C129  1  0.88700000  0.02780000  0.44865000  1.0
  C  C130  1  0.89090000  0.10430000  0.46089000  1.0
  C  C131  1  0.80530000  0.12740000  0.49707000  1.0
  C  C132  1  0.71490000  0.07400000  0.52111000  1.0
  C  C133  1  0.71400000  0.99730000  0.50924000  1.0
  C  C134  1  0.99000000  0.16190000  0.43729000  1.0
  C  C135  1  0.61080000  0.10040000  0.55821000  1.0
  C  C136  1  0.73020000  0.18510000  0.61315000  1.0
  C  C137  1  0.81390000  0.19620000  0.65120000  1.0
  C  C138  1  0.87810000  0.13430000  0.67301000  1.0
  C  C139  1  0.86200000  0.06390000  0.65540000  1.0
  C  C140  1  0.77900000  0.05420000  0.61837000  1.0
  C  C141  1  0.96020000  0.13930000  0.71550000  1.0
  C  C142  1  0.98150000  0.20280000  0.73720000  1.0
  C  C143  1  0.06170000  0.20680000  0.77864000  1.0
  C  C144  1  0.10520000  0.27750000  0.79450000  1.0
  C  C145  1  0.18390000  0.28220000  0.83340000  1.0
  C  C146  1  0.17540000  0.15270000  0.84254000  1.0
  C  C147  1  0.09660000  0.14120000  0.80450000  1.0
  C  C148  1  0.70510000  0.60940000  0.96104000  1.0
  C  C149  1  0.70000000  0.52640000  0.97301000  1.0
  C  C150  1  0.61300000  0.47220000  0.94865000  1.0
  C  C151  1  0.60910000  0.39570000  0.96089000  1.0
  C  C152  1  0.69470000  0.37260000  0.99707000  1.0
  C  C153  1  0.78510000  0.42600000  0.02111000  1.0
  C  C154  1  0.78600000  0.50270000  0.00924000  1.0
  C  C155  1  0.51000000  0.33810000  0.93729000  1.0
  C  C156  1  0.88920000  0.39960000  0.05821000  1.0
  C  C157  1  0.76980000  0.31490000  0.11315000  1.0
  C  C158  1  0.68610000  0.30380000  0.15120000  1.0
  C  C159  1  0.62190000  0.36570000  0.17301000  1.0
  C  C160  1  0.63800000  0.43610000  0.15540000  1.0
  C  C161  1  0.72100000  0.44580000  0.11837000  1.0
  C  C162  1  0.53980000  0.36070000  0.21550000  1.0
  C  C163  1  0.51850000  0.29720000  0.23720000  1.0
  C  C164  1  0.43830000  0.29320000  0.27864000  1.0
  C  C165  1  0.39480000  0.22250000  0.29450000  1.0
  C  C166  1  0.31610000  0.21780000  0.33340000  1.0
  C  C167  1  0.32460000  0.34730000  0.34254000  1.0
  C  C168  1  0.40340000  0.35880000  0.30450000  1.0
  N  N1  1  0.78000000  0.77900000  0.14277000  1.0
  N  N2  1  0.28710000  0.88570000  0.40225000  1.0
  N  N3  1  0.72000000  0.72100000  0.64277000  1.0
  N  N4  1  0.21290000  0.61430000  0.90225000  1.0
  N  N5  1  0.22000000  0.27900000  0.14277000  1.0
  N  N6  1  0.71290000  0.38570000  0.40225000  1.0
  N  N7  1  0.28000000  0.22100000  0.64277000  1.0
  N  N8  1  0.78710000  0.11430000  0.90225000  1.0
  N  N9  1  0.78000000  0.72100000  0.85723000  1.0
  N  N10  1  0.28710000  0.61430000  0.59775000  1.0
  N  N11  1  0.72000000  0.77900000  0.35723000  1.0
  N  N12  1  0.21290000  0.88570000  0.09775000  1.0
  N  N13  1  0.22000000  0.22100000  0.85723000  1.0
  N  N14  1  0.71290000  0.11430000  0.59775000  1.0
  N  N15  1  0.28000000  0.27900000  0.35723000  1.0
  N  N16  1  0.78710000  0.38570000  0.09775000  1.0
  N  N17  1  0.08610000  0.57830000  0.12720000  1.0
  N  N18  1  0.08610000  0.92170000  0.87280000  1.0
  N  N19  1  0.41390000  0.92170000  0.62720000  1.0
  N  N20  1  0.41390000  0.57830000  0.37280000  1.0
  N  N21  1  0.91390000  0.42170000  0.87280000  1.0
  N  N22  1  0.91390000  0.07830000  0.12720000  1.0
  N  N23  1  0.58610000  0.07830000  0.37280000  1.0
  N  N24  1  0.58610000  0.42170000  0.62720000  1.0
  O  O1  1  0.14730000  0.12740000  0.57541000  1.0
  O  O2  1  0.26900000  0.15600000  0.51422000  1.0
  O  O3  1  0.91760000  0.85510000  0.59324000  1.0
  O  O4  1  0.01500000  0.76900000  0.55052000  1.0
  O  O5  1  0.40520000  0.28540000  0.56011000  1.0
  O  O6  1  0.35270000  0.37260000  0.07541000  1.0
  O  O7  1  0.23100000  0.34400000  0.01422000  1.0
  O  O8  1  0.58240000  0.64490000  0.09324000  1.0
  O  O9  1  0.48500000  0.73100000  0.05052000  1.0
  O  O10  1  0.09480000  0.21460000  0.06011000  1.0
  O  O11  1  0.85270000  0.62740000  0.57541000  1.0
  O  O12  1  0.73100000  0.65600000  0.51422000  1.0
  O  O13  1  0.08240000  0.35510000  0.59324000  1.0
  O  O14  1  0.98500000  0.26900000  0.55052000  1.0
  O  O15  1  0.59480000  0.78540000  0.56011000  1.0
  O  O16  1  0.64730000  0.87260000  0.07541000  1.0
  O  O17  1  0.76900000  0.84400000  0.01422000  1.0
  O  O18  1  0.41760000  0.14490000  0.09324000  1.0
  O  O19  1  0.51500000  0.23100000  0.05052000  1.0
  O  O20  1  0.90520000  0.71460000  0.06011000  1.0
  O  O21  1  0.14730000  0.37260000  0.42459000  1.0
  O  O22  1  0.26900000  0.34400000  0.48578000  1.0
  O  O23  1  0.91760000  0.64490000  0.40676000  1.0
  O  O24  1  0.01500000  0.73100000  0.44948000  1.0
  O  O25  1  0.40520000  0.21460000  0.43989000  1.0
  O  O26  1  0.35270000  0.12740000  0.92459000  1.0
  O  O27  1  0.23100000  0.15600000  0.98578000  1.0
  O  O28  1  0.58240000  0.85510000  0.90676000  1.0
  O  O29  1  0.48500000  0.76900000  0.94948000  1.0
  O  O30  1  0.09480000  0.28540000  0.93989000  1.0
  O  O31  1  0.85270000  0.87260000  0.42459000  1.0
  O  O32  1  0.73100000  0.84400000  0.48578000  1.0
  O  O33  1  0.08240000  0.14490000  0.40676000  1.0
  O  O34  1  0.98500000  0.23100000  0.44948000  1.0
  O  O35  1  0.59480000  0.71460000  0.43989000  1.0
  O  O36  1  0.64730000  0.62740000  0.92459000  1.0
  O  O37  1  0.76900000  0.65600000  0.98578000  1.0
  O  O38  1  0.41760000  0.35510000  0.90676000  1.0
  O  O39  1  0.51500000  0.26900000  0.94948000  1.0
  O  O40  1  0.90520000  0.78540000  0.93989000  1.0
  O  O41  1  0.99510000  0.57490000  0.09820000  1.0
  O  O42  1  0.11400000  0.52750000  0.15090000  1.0
  O  O43  1  0.16940000  0.64010000  0.13040000  1.0
  O  O44  1  0.99510000  0.92510000  0.90180000  1.0
  O  O45  1  0.11400000  0.97250000  0.84910000  1.0
  O  O46  1  0.16940000  0.85990000  0.86960000  1.0
  O  O47  1  0.50490000  0.92510000  0.59820000  1.0
  O  O48  1  0.38600000  0.97250000  0.65090000  1.0
  O  O49  1  0.33060000  0.85990000  0.63040000  1.0
  O  O50  1  0.50490000  0.57490000  0.40180000  1.0
  O  O51  1  0.38600000  0.52750000  0.34910000  1.0
  O  O52  1  0.33060000  0.64010000  0.36960000  1.0
  O  O53  1  0.00490000  0.42510000  0.90180000  1.0
  O  O54  1  0.88600000  0.47250000  0.84910000  1.0
  O  O55  1  0.83060000  0.35990000  0.86960000  1.0
  O  O56  1  0.00490000  0.07490000  0.09820000  1.0
  O  O57  1  0.88600000  0.02750000  0.15090000  1.0
  O  O58  1  0.83060000  0.14010000  0.13040000  1.0
  O  O59  1  0.49510000  0.07490000  0.40180000  1.0
  O  O60  1  0.61400000  0.02750000  0.34910000  1.0
  O  O61  1  0.66940000  0.14010000  0.36960000  1.0
  O  O62  1  0.49510000  0.42510000  0.59820000  1.0
  O  O63  1  0.61400000  0.47250000  0.65090000  1.0
  O  O64  1  0.66940000  0.35990000  0.63040000  1.0
