# generated using pymatgen
data_Ni2H66C81SeSN21O11
_symmetry_space_group_name_H-M   'P 1'
_cell_length_a   24.59380000
_cell_length_b   24.59380000
_cell_length_c   27.47900000
_cell_angle_alpha   73.23440000
_cell_angle_beta   106.76600000
_cell_angle_gamma   144.09700000
_symmetry_Int_Tables_number   1
_chemical_formula_structural   Ni2H66C81SeSN21O11
_chemical_formula_sum   'Ni8 H264 C324 Se4 S4 N84 O44'
_cell_volume   9287.81460174
_cell_formula_units_Z   4
loop_
 _symmetry_equiv_pos_site_id
 _symmetry_equiv_pos_as_xyz
  1  'x, y, z'
loop_
 _atom_site_type_symbol
 _atom_site_label
 _atom_site_symmetry_multiplicity
 _atom_site_fract_x
 _atom_site_fract_y
 _atom_site_fract_z
 _atom_site_occupancy
  Ni  Ni1  1  0.53346000  0.29126000  0.04792000  1.0
  Ni  Ni2  1  0.29126000  0.53346000  0.45208000  1.0
  Ni  Ni3  1  0.46654000  0.70874000  0.95208000  1.0
  Ni  Ni4  1  0.70874000  0.46654000  0.54792000  1.0
  Ni  Ni5  1  0.50000000  0.00000000  0.00000000  1.0
  Ni  Ni6  1  0.00000000  0.50000000  0.50000000  1.0
  Ni  Ni7  1  0.00000000  0.00000000  0.50000000  1.0
  Ni  Ni8  1  0.00000000  0.00000000  0.00000000  1.0
  H  H1  1  0.54155000  0.95569000  0.96285000  1.0
  H  H2  1  0.87520000  0.89196000  0.56017000  1.0
  H  H3  1  0.58030000  0.41464000  0.97694000  1.0
  H  H4  1  0.96966000  0.79472000  0.14026000  1.0
  H  H5  1  0.73882000  0.47236000  0.00495000  1.0
  H  H6  1  0.83139000  0.73583000  0.24682000  1.0
  H  H7  1  0.80032000  0.75874000  0.30545000  1.0
  H  H8  1  0.76203000  0.52187000  0.24550000  1.0
  H  H9  1  0.38856000  0.07914000  0.54908000  1.0
  H  H10  1  0.86253000  0.66005000  0.27501000  1.0
  H  H11  1  0.37104000  0.12506000  0.11996000  1.0
  H  H12  1  0.45907000  0.95455000  0.88282000  1.0
  H  H13  1  0.39131000  0.09593000  0.00899000  1.0
  H  H14  1  0.97087000  0.76217000  0.53804000  1.0
  H  H15  1  0.81445000  0.35915000  0.56250000  1.0
  H  H16  1  0.69688000  0.49816000  0.08269000  1.0
  H  H17  1  0.85989000  0.65173000  0.10935000  1.0
  H  H18  1  0.46958000  0.97290000  0.70722000  1.0
  H  H19  1  0.50826000  0.00156000  0.79325000  1.0
  H  H20  1  0.26097000  0.03449000  0.51046000  1.0
  H  H21  1  0.24665000  0.83307000  0.87247000  1.0
  H  H22  1  0.10712000  0.96352000  0.28696000  1.0
  H  H23  1  0.62076000  0.28444000  0.16275000  1.0
  H  H24  1  0.73014000  0.40954000  0.21686000  1.0
  H  H25  1  0.33421000  0.01055000  0.68081000  1.0
  H  H26  1  0.67375000  0.15712000  0.48401000  1.0
  H  H27  1  0.29695000  0.82659000  0.81765000  1.0
  H  H28  1  0.99077000  0.65273000  0.79342000  1.0
  H  H29  1  0.04631000  0.97089000  0.17682000  1.0
  H  H30  1  0.97446000  0.72446000  0.90150000  1.0
  H  H31  1  0.27721000  0.01989000  0.18830000  1.0
  H  H32  1  0.03183000  0.96897000  0.41565000  1.0
  H  H33  1  0.16374000  0.03454000  0.52976000  1.0
  H  H34  1  0.09693000  0.80745000  0.60824000  1.0
  H  H35  1  0.18329000  0.10719000  0.13620000  1.0
  H  H36  1  0.54894000  0.21492000  0.98097000  1.0
  H  H37  1  0.13825000  0.88351000  0.22847000  1.0
  H  H38  1  0.22781000  0.92591000  0.99584000  1.0
  H  H39  1  0.67213000  0.31141000  0.92495000  1.0
  H  H40  1  0.82946000  0.29508000  0.45710000  1.0
  H  H41  1  0.77276000  0.80384000  0.34658000  1.0
  H  H42  1  0.37496000  0.04360000  0.76547000  1.0
  H  H43  1  0.13115000  0.78583000  0.96602000  1.0
  H  H44  1  0.21498000  0.84072000  0.64498000  1.0
  H  H45  1  0.07297000  0.98791000  0.34415000  1.0
  H  H46  1  0.84293000  0.44443000  0.92373000  1.0
  H  H47  1  0.56005000  0.16997000  0.64101000  1.0
  H  H48  1  0.04129000  0.64137000  0.74083000  1.0
  H  H49  1  0.80020000  0.85944000  0.42398000  1.0
  H  H50  1  0.33268000  0.73788000  0.71965000  1.0
  H  H51  1  0.97862000  0.56876000  0.88928000  1.0
  H  H52  1  0.69303000  0.26821000  0.60302000  1.0
  H  H53  1  0.40077000  0.26933000  0.94554000  1.0
  H  H54  1  0.29280000  0.14350000  0.89256000  1.0
  H  H55  1  0.18154000  0.90706000  0.82295000  1.0
  H  H56  1  0.83955000  0.59555000  0.94130000  1.0
  H  H57  1  0.55153000  0.06917000  0.51915000  1.0
  H  H58  1  0.12009000  0.68145000  0.67283000  1.0
  H  H59  1  0.89710000  0.79444000  0.52073000  1.0
  H  H60  1  0.31245000  0.76193000  0.78590000  1.0
  H  H61  1  0.27347000  0.04403000  0.85269000  1.0
  H  H62  1  0.51494000  0.13824000  0.92466000  1.0
  H  H63  1  0.50124000  0.15726000  0.83170000  1.0
  H  H64  1  0.42182000  0.97062000  0.55934000  1.0
  H  H65  1  0.46281000  0.34955000  0.07136000  1.0
  H  H66  1  0.32934000  0.24908000  0.11907000  1.0
  H  H67  1  0.95569000  0.54155000  0.53715000  1.0
  H  H68  1  0.89196000  0.87520000  0.93983000  1.0
  H  H69  1  0.41464000  0.58030000  0.52306000  1.0
  H  H70  1  0.79472000  0.96966000  0.35974000  1.0
  H  H71  1  0.47236000  0.73882000  0.49505000  1.0
  H  H72  1  0.73583000  0.83139000  0.25318000  1.0
  H  H73  1  0.75874000  0.80032000  0.19455000  1.0
  H  H74  1  0.52187000  0.76203000  0.25450000  1.0
  H  H75  1  0.07914000  0.38856000  0.95092000  1.0
  H  H76  1  0.66005000  0.86253000  0.22499000  1.0
  H  H77  1  0.12506000  0.37104000  0.38004000  1.0
  H  H78  1  0.95455000  0.45907000  0.61718000  1.0
  H  H79  1  0.09593000  0.39131000  0.49101000  1.0
  H  H80  1  0.76217000  0.97087000  0.96196000  1.0
  H  H81  1  0.35915000  0.81445000  0.93750000  1.0
  H  H82  1  0.49816000  0.69688000  0.41731000  1.0
  H  H83  1  0.65173000  0.85989000  0.39065000  1.0
  H  H84  1  0.97290000  0.46958000  0.79278000  1.0
  H  H85  1  0.00156000  0.50826000  0.70675000  1.0
  H  H86  1  0.03449000  0.26097000  0.98954000  1.0
  H  H87  1  0.83307000  0.24665000  0.62753000  1.0
  H  H88  1  0.96352000  0.10712000  0.21304000  1.0
  H  H89  1  0.28444000  0.62076000  0.33725000  1.0
  H  H90  1  0.40954000  0.73014000  0.28314000  1.0
  H  H91  1  0.01055000  0.33421000  0.81919000  1.0
  H  H92  1  0.15712000  0.67375000  0.01599000  1.0
  H  H93  1  0.82659000  0.29695000  0.68235000  1.0
  H  H94  1  0.65273000  0.99077000  0.70658000  1.0
  H  H95  1  0.97089000  0.04631000  0.32318000  1.0
  H  H96  1  0.72446000  0.97446000  0.59850000  1.0
  H  H97  1  0.01989000  0.27721000  0.31170000  1.0
  H  H98  1  0.96897000  0.03183000  0.08435000  1.0
  H  H99  1  0.03454000  0.16374000  0.97024000  1.0
  H  H100  1  0.80745000  0.09693000  0.89176000  1.0
  H  H101  1  0.10719000  0.18329000  0.36380000  1.0
  H  H102  1  0.21492000  0.54894000  0.51903000  1.0
  H  H103  1  0.88351000  0.13825000  0.27153000  1.0
  H  H104  1  0.92591000  0.22781000  0.50416000  1.0
  H  H105  1  0.31141000  0.67213000  0.57505000  1.0
  H  H106  1  0.29508000  0.82946000  0.04290000  1.0
  H  H107  1  0.80384000  0.77276000  0.15342000  1.0
  H  H108  1  0.04360000  0.37496000  0.73453000  1.0
  H  H109  1  0.78583000  0.13115000  0.53398000  1.0
  H  H110  1  0.84072000  0.21498000  0.85502000  1.0
  H  H111  1  0.98791000  0.07297000  0.15585000  1.0
  H  H112  1  0.44443000  0.84293000  0.57627000  1.0
  H  H113  1  0.16997000  0.56005000  0.85899000  1.0
  H  H114  1  0.64137000  0.04129000  0.75917000  1.0
  H  H115  1  0.85944000  0.80020000  0.07602000  1.0
  H  H116  1  0.73788000  0.33268000  0.78035000  1.0
  H  H117  1  0.56876000  0.97862000  0.61072000  1.0
  H  H118  1  0.26821000  0.69303000  0.89698000  1.0
  H  H119  1  0.26933000  0.40077000  0.55446000  1.0
  H  H120  1  0.14350000  0.29280000  0.60744000  1.0
  H  H121  1  0.90706000  0.18154000  0.67705000  1.0
  H  H122  1  0.59555000  0.83955000  0.55870000  1.0
  H  H123  1  0.06917000  0.55153000  0.98085000  1.0
  H  H124  1  0.68145000  0.12009000  0.82717000  1.0
  H  H125  1  0.79444000  0.89710000  0.97927000  1.0
  H  H126  1  0.76193000  0.31245000  0.71410000  1.0
  H  H127  1  0.04403000  0.27347000  0.64731000  1.0
  H  H128  1  0.13824000  0.51494000  0.57534000  1.0
  H  H129  1  0.15726000  0.50124000  0.66830000  1.0
  H  H130  1  0.97062000  0.42182000  0.94066000  1.0
  H  H131  1  0.34955000  0.46281000  0.42864000  1.0
  H  H132  1  0.24908000  0.32934000  0.38093000  1.0
  H  H133  1  0.45845000  0.04431000  0.03715000  1.0
  H  H134  1  0.12480000  0.10804000  0.43983000  1.0
  H  H135  1  0.41970000  0.58536000  0.02306000  1.0
  H  H136  1  0.03034000  0.20528000  0.85974000  1.0
  H  H137  1  0.26118000  0.52764000  0.99505000  1.0
  H  H138  1  0.16861000  0.26417000  0.75318000  1.0
  H  H139  1  0.19968000  0.24126000  0.69455000  1.0
  H  H140  1  0.23797000  0.47813000  0.75450000  1.0
  H  H141  1  0.61144000  0.92086000  0.45092000  1.0
  H  H142  1  0.13747000  0.33995000  0.72499000  1.0
  H  H143  1  0.62896000  0.87494000  0.88004000  1.0
  H  H144  1  0.54093000  0.04545000  0.11718000  1.0
  H  H145  1  0.60869000  0.90407000  0.99101000  1.0
  H  H146  1  0.02913000  0.23783000  0.46196000  1.0
  H  H147  1  0.18555000  0.64085000  0.43750000  1.0
  H  H148  1  0.30312000  0.50184000  0.91731000  1.0
  H  H149  1  0.14011000  0.34827000  0.89065000  1.0
  H  H150  1  0.53042000  0.02710000  0.29278000  1.0
  H  H151  1  0.49174000  0.99844000  0.20675000  1.0
  H  H152  1  0.73903000  0.96551000  0.48954000  1.0
  H  H153  1  0.75335000  0.16693000  0.12753000  1.0
  H  H154  1  0.89288000  0.03648000  0.71304000  1.0
  H  H155  1  0.37924000  0.71556000  0.83725000  1.0
  H  H156  1  0.26986000  0.59046000  0.78314000  1.0
  H  H157  1  0.66579000  0.98945000  0.31919000  1.0
  H  H158  1  0.32625000  0.84288000  0.51599000  1.0
  H  H159  1  0.70305000  0.17341000  0.18235000  1.0
  H  H160  1  0.00923000  0.34727000  0.20658000  1.0
  H  H161  1  0.95369000  0.02911000  0.82318000  1.0
  H  H162  1  0.02554000  0.27554000  0.09850000  1.0
  H  H163  1  0.72279000  0.98011000  0.81170000  1.0
  H  H164  1  0.96817000  0.03103000  0.58435000  1.0
  H  H165  1  0.83626000  0.96546000  0.47024000  1.0
  H  H166  1  0.90307000  0.19255000  0.39176000  1.0
  H  H167  1  0.81671000  0.89281000  0.86380000  1.0
  H  H168  1  0.45106000  0.78508000  0.01903000  1.0
  H  H169  1  0.86175000  0.11649000  0.77153000  1.0
  H  H170  1  0.77219000  0.07409000  0.00416000  1.0
  H  H171  1  0.32787000  0.68859000  0.07505000  1.0
  H  H172  1  0.17054000  0.70492000  0.54290000  1.0
  H  H173  1  0.22724000  0.19616000  0.65342000  1.0
  H  H174  1  0.62504000  0.95640000  0.23453000  1.0
  H  H175  1  0.86885000  0.21417000  0.03398000  1.0
  H  H176  1  0.78502000  0.15928000  0.35502000  1.0
  H  H177  1  0.92703000  0.01209000  0.65585000  1.0
  H  H178  1  0.15707000  0.55557000  0.07627000  1.0
  H  H179  1  0.43995000  0.83003000  0.35899000  1.0
  H  H180  1  0.95871000  0.35863000  0.25917000  1.0
  H  H181  1  0.19980000  0.14056000  0.57602000  1.0
  H  H182  1  0.66732000  0.26212000  0.28035000  1.0
  H  H183  1  0.02138000  0.43124000  0.11072000  1.0
  H  H184  1  0.30697000  0.73179000  0.39698000  1.0
  H  H185  1  0.59923000  0.73067000  0.05446000  1.0
  H  H186  1  0.70720000  0.85650000  0.10744000  1.0
  H  H187  1  0.81846000  0.09294000  0.17705000  1.0
  H  H188  1  0.16045000  0.40445000  0.05870000  1.0
  H  H189  1  0.44847000  0.93083000  0.48085000  1.0
  H  H190  1  0.87991000  0.31855000  0.32717000  1.0
  H  H191  1  0.10290000  0.20556000  0.47927000  1.0
  H  H192  1  0.68755000  0.23807000  0.21410000  1.0
  H  H193  1  0.72653000  0.95597000  0.14731000  1.0
  H  H194  1  0.48506000  0.86176000  0.07534000  1.0
  H  H195  1  0.49876000  0.84274000  0.16830000  1.0
  H  H196  1  0.57818000  0.02938000  0.44066000  1.0
  H  H197  1  0.53719000  0.65045000  0.92864000  1.0
  H  H198  1  0.67066000  0.75092000  0.88093000  1.0
  H  H199  1  0.04431000  0.45845000  0.46285000  1.0
  H  H200  1  0.10804000  0.12480000  0.06017000  1.0
  H  H201  1  0.58536000  0.41970000  0.47694000  1.0
  H  H202  1  0.20528000  0.03034000  0.64026000  1.0
  H  H203  1  0.52764000  0.26118000  0.50495000  1.0
  H  H204  1  0.26417000  0.16861000  0.74682000  1.0
  H  H205  1  0.24126000  0.19968000  0.80545000  1.0
  H  H206  1  0.47813000  0.23797000  0.74550000  1.0
  H  H207  1  0.92086000  0.61144000  0.04908000  1.0
  H  H208  1  0.33995000  0.13747000  0.77501000  1.0
  H  H209  1  0.87494000  0.62896000  0.61996000  1.0
  H  H210  1  0.04545000  0.54093000  0.38282000  1.0
  H  H211  1  0.90407000  0.60869000  0.50899000  1.0
  H  H212  1  0.23783000  0.02913000  0.03804000  1.0
  H  H213  1  0.64085000  0.18555000  0.06250000  1.0
  H  H214  1  0.50184000  0.30312000  0.58269000  1.0
  H  H215  1  0.34827000  0.14011000  0.60935000  1.0
  H  H216  1  0.02710000  0.53042000  0.20722000  1.0
  H  H217  1  0.99844000  0.49174000  0.29325000  1.0
  H  H218  1  0.96551000  0.73903000  0.01046000  1.0
  H  H219  1  0.16693000  0.75335000  0.37247000  1.0
  H  H220  1  0.03648000  0.89288000  0.78696000  1.0
  H  H221  1  0.71556000  0.37924000  0.66275000  1.0
  H  H222  1  0.59046000  0.26986000  0.71686000  1.0
  H  H223  1  0.98945000  0.66579000  0.18081000  1.0
  H  H224  1  0.84288000  0.32626000  0.98401000  1.0
  H  H225  1  0.17341000  0.70305000  0.31765000  1.0
  H  H226  1  0.34727000  0.00923000  0.29342000  1.0
  H  H227  1  0.02911000  0.95369000  0.67682000  1.0
  H  H228  1  0.27554000  0.02554000  0.40150000  1.0
  H  H229  1  0.98011000  0.72279000  0.68830000  1.0
  H  H230  1  0.03103000  0.96817000  0.91565000  1.0
  H  H231  1  0.96546000  0.83626000  0.02976000  1.0
  H  H232  1  0.19255000  0.90307000  0.10824000  1.0
  H  H233  1  0.89281000  0.81671000  0.63620000  1.0
  H  H234  1  0.78508000  0.45106000  0.48097000  1.0
  H  H235  1  0.11649000  0.86175000  0.72847000  1.0
  H  H236  1  0.07409000  0.77219000  0.49584000  1.0
  H  H237  1  0.68859000  0.32787000  0.42495000  1.0
  H  H238  1  0.70492000  0.17054000  0.95710000  1.0
  H  H239  1  0.19616000  0.22724000  0.84658000  1.0
  H  H240  1  0.95640000  0.62504000  0.26547000  1.0
  H  H241  1  0.21417000  0.86885000  0.46602000  1.0
  H  H242  1  0.15928000  0.78502000  0.14498000  1.0
  H  H243  1  0.01209000  0.92703000  0.84415000  1.0
  H  H244  1  0.55557000  0.15707000  0.42373000  1.0
  H  H245  1  0.83003000  0.43995000  0.14101000  1.0
  H  H246  1  0.35863000  0.95871000  0.24083000  1.0
  H  H247  1  0.14056000  0.19980000  0.92398000  1.0
  H  H248  1  0.26212000  0.66732000  0.21965000  1.0
  H  H249  1  0.43124000  0.02138000  0.38928000  1.0
  H  H250  1  0.73179000  0.30697000  0.10302000  1.0
  H  H251  1  0.73067000  0.59923000  0.44554000  1.0
  H  H252  1  0.85650000  0.70720000  0.39256000  1.0
  H  H253  1  0.09294000  0.81846000  0.32295000  1.0
  H  H254  1  0.40445000  0.16045000  0.44130000  1.0
  H  H255  1  0.93083000  0.44847000  0.01915000  1.0
  H  H256  1  0.31855000  0.87991000  0.17283000  1.0
  H  H257  1  0.20556000  0.10290000  0.02073000  1.0
  H  H258  1  0.23807000  0.68755000  0.28590000  1.0
  H  H259  1  0.95597000  0.72653000  0.35269000  1.0
  H  H260  1  0.86176000  0.48506000  0.42466000  1.0
  H  H261  1  0.84274000  0.49876000  0.33170000  1.0
  H  H262  1  0.02938000  0.57818000  0.05934000  1.0
  H  H263  1  0.65045000  0.53719000  0.57136000  1.0
  H  H264  1  0.75092000  0.67066000  0.61907000  1.0
  C  C1  1  0.31940000  0.96700000  0.60380000  1.0
  C  C2  1  0.92740000  0.74040000  0.16180000  1.0
  C  C3  1  0.47760000  0.05700000  0.60720000  1.0
  C  C4  1  0.79860000  0.57280000  0.17280000  1.0
  C  C5  1  0.70600000  0.42000000  0.99160000  1.0
  C  C6  1  0.63370000  0.17610000  0.55780000  1.0
  C  C7  1  0.07840000  0.91400000  0.20360000  1.0
  C  C8  1  0.88000000  0.78480000  0.26730000  1.0
  C  C9  1  0.86140000  0.79920000  0.30190000  1.0
  C  C10  1  0.80220000  0.57660000  0.22390000  1.0
  C  C11  1  0.33070000  0.02470000  0.56150000  1.0
  C  C12  1  0.14780000  0.83380000  0.89180000  1.0
  C  C13  1  0.86340000  0.65900000  0.24170000  1.0
  C  C14  1  0.37930000  0.17050000  0.11440000  1.0
  C  C15  1  0.99660000  0.66540000  0.89340000  1.0
  C  C16  1  0.97170000  0.84430000  0.26340000  1.0
  C  C17  1  0.46960000  0.00080000  0.88170000  1.0
  C  C18  1  0.17040000  0.92240000  0.55800000  1.0
  C  C19  1  0.38030000  0.12350000  0.98710000  1.0
  C  C20  1  0.00070000  0.82050000  0.53510000  1.0
  C  C21  1  0.93400000  0.87340000  0.33090000  1.0
  C  C22  1  0.80000000  0.32740000  0.53900000  1.0
  C  C23  1  0.93130000  0.74670000  0.20960000  1.0
  C  C24  1  0.69220000  0.46120000  0.10910000  1.0
  C  C25  1  0.86080000  0.65340000  0.14300000  1.0
  C  C26  1  0.45320000  0.99020000  0.71850000  1.0
  C  C27  1  0.47500000  0.00560000  0.77070000  1.0
  C  C28  1  0.25430000  0.99870000  0.53920000  1.0
  C  C29  1  0.20570000  0.79550000  0.84570000  1.0
  C  C30  1  0.04580000  0.92200000  0.29090000  1.0
  C  C31  1  0.64990000  0.34270000  0.15340000  1.0
  C  C32  1  0.82200000  0.50300000  0.93420000  1.0
  C  C33  1  0.40830000  0.00070000  0.68470000  1.0
  C  C34  1  0.17300000  0.73220000  0.77440000  1.0
  C  C35  1  0.70990000  0.41170000  0.18290000  1.0
  C  C36  1  0.11380000  0.74420000  0.83890000  1.0
  C  C37  1  0.37300000  0.01320000  0.70260000  1.0
  C  C38  1  0.24160000  0.07620000  0.15710000  1.0
  C  C39  1  0.72140000  0.21500000  0.49640000  1.0
  C  C40  1  0.23580000  0.79100000  0.81340000  1.0
  C  C41  1  0.05110000  0.68630000  0.79880000  1.0
  C  C42  1  0.09140000  0.97980000  0.17830000  1.0
  C  C43  1  0.94990000  0.66850000  0.90720000  1.0
  C  C44  1  0.23110000  0.00990000  0.18540000  1.0
  C  C45  1  0.26130000  0.00090000  0.92640000  1.0
  C  C46  1  0.44640000  0.02620000  0.78670000  1.0
  C  C47  1  0.97230000  0.93750000  0.40730000  1.0
  C  C48  1  0.10650000  0.97070000  0.53030000  1.0
  C  C49  1  0.15600000  0.86220000  0.59720000  1.0
  C  C50  1  0.17440000  0.06240000  0.15410000  1.0
  C  C51  1  0.60240000  0.27960000  0.97850000  1.0
  C  C52  1  0.14710000  0.92790000  0.20920000  1.0
  C  C53  1  0.21810000  0.92230000  0.96100000  1.0
  C  C54  1  0.67120000  0.33260000  0.94740000  1.0
  C  C55  1  0.80790000  0.29230000  0.48170000  1.0
  C  C56  1  0.82710000  0.84390000  0.36850000  1.0
  C  C57  1  0.39490000  0.03010000  0.75390000  1.0
  C  C58  1  0.16050000  0.83830000  0.94320000  1.0
  C  C59  1  0.22640000  0.88240000  0.61910000  1.0
  C  C60  1  0.02500000  0.93640000  0.32550000  1.0
  C  C61  1  0.86960000  0.50140000  0.91940000  1.0
  C  C62  1  0.55840000  0.14780000  0.61760000  1.0
  C  C63  1  0.08210000  0.68030000  0.76700000  1.0
  C  C64  1  0.84400000  0.87600000  0.41150000  1.0
  C  C65  1  0.28900000  0.73060000  0.71890000  1.0
  C  C66  1  0.95140000  0.57540000  0.89930000  1.0
  C  C67  1  0.63780000  0.20760000  0.59420000  1.0
  C  C68  1  0.38580000  0.21920000  0.95150000  1.0
  C  C69  1  0.32510000  0.14890000  0.92320000  1.0
  C  C70  1  0.19000000  0.91020000  0.85770000  1.0
  C  C71  1  0.86630000  0.58970000  0.92940000  1.0
  C  C72  1  0.55440000  0.08960000  0.54470000  1.0
  C  C73  1  0.16950000  0.69870000  0.69240000  1.0
  C  C74  1  0.96110000  0.83930000  0.52490000  1.0
  C  C75  1  0.27640000  0.74280000  0.75460000  1.0
  C  C76  1  0.24570000  0.99250000  0.87600000  1.0
  C  C77  1  0.50200000  0.10440000  0.90380000  1.0
  C  C78  1  0.49270000  0.11410000  0.85290000  1.0
  C  C79  1  0.47690000  0.03070000  0.56900000  1.0
  C  C80  1  0.42770000  0.29090000  0.08800000  1.0
  C  C81  1  0.35380000  0.23580000  0.11460000  1.0
  C  C82  1  0.96700000  0.31940000  0.89620000  1.0
  C  C83  1  0.74040000  0.92740000  0.33820000  1.0
  C  C84  1  0.05700000  0.47760000  0.89280000  1.0
  C  C85  1  0.57280000  0.79860000  0.32720000  1.0
  C  C86  1  0.42000000  0.70600000  0.50840000  1.0
  C  C87  1  0.17610000  0.63370000  0.94220000  1.0
  C  C88  1  0.91400000  0.07840000  0.29640000  1.0
  C  C89  1  0.78480000  0.88000000  0.23270000  1.0
  C  C90  1  0.79920000  0.86140000  0.19810000  1.0
  C  C91  1  0.57660000  0.80220000  0.27610000  1.0
  C  C92  1  0.02470000  0.33070000  0.93850000  1.0
  C  C93  1  0.83380000  0.14780000  0.60820000  1.0
  C  C94  1  0.65900000  0.86340000  0.25830000  1.0
  C  C95  1  0.17050000  0.37930000  0.38560000  1.0
  C  C96  1  0.66540000  0.99660000  0.60660000  1.0
  C  C97  1  0.84430000  0.97170000  0.23660000  1.0
  C  C98  1  0.00080000  0.46960000  0.61830000  1.0
  C  C99  1  0.92240000  0.17040000  0.94200000  1.0
  C  C100  1  0.12350000  0.38030000  0.51290000  1.0
  C  C101  1  0.82050000  0.00070000  0.96490000  1.0
  C  C102  1  0.87340000  0.93400000  0.16910000  1.0
  C  C103  1  0.32740000  0.80000000  0.96100000  1.0
  C  C104  1  0.74670000  0.93130000  0.29040000  1.0
  C  C105  1  0.46120000  0.69220000  0.39090000  1.0
  C  C106  1  0.65340000  0.86080000  0.35700000  1.0
  C  C107  1  0.99020000  0.45320000  0.78150000  1.0
  C  C108  1  0.00560000  0.47500000  0.72930000  1.0
  C  C109  1  0.99870000  0.25430000  0.96080000  1.0
  C  C110  1  0.79550000  0.20570000  0.65430000  1.0
  C  C111  1  0.92200000  0.04580000  0.20910000  1.0
  C  C112  1  0.34270000  0.64990000  0.34660000  1.0
  C  C113  1  0.50300000  0.82200000  0.56580000  1.0
  C  C114  1  0.00070000  0.40830000  0.81530000  1.0
  C  C115  1  0.73220000  0.17300000  0.72560000  1.0
  C  C116  1  0.41170000  0.70990000  0.31710000  1.0
  C  C117  1  0.74420000  0.11380000  0.66110000  1.0
  C  C118  1  0.01320000  0.37300000  0.79740000  1.0
  C  C119  1  0.07620000  0.24160000  0.34290000  1.0
  C  C120  1  0.21500000  0.72140000  0.00360000  1.0
  C  C121  1  0.79100000  0.23580000  0.68660000  1.0
  C  C122  1  0.68630000  0.05110000  0.70120000  1.0
  C  C123  1  0.97980000  0.09140000  0.32170000  1.0
  C  C124  1  0.66850000  0.94990000  0.59280000  1.0
  C  C125  1  0.00990000  0.23110000  0.31460000  1.0
  C  C126  1  0.00090000  0.26130000  0.57360000  1.0
  C  C127  1  0.02620000  0.44640000  0.71330000  1.0
  C  C128  1  0.93750000  0.97230000  0.09270000  1.0
  C  C129  1  0.97070000  0.10650000  0.96970000  1.0
  C  C130  1  0.86220000  0.15600000  0.90280000  1.0
  C  C131  1  0.06240000  0.17440000  0.34590000  1.0
  C  C132  1  0.27960000  0.60240000  0.52150000  1.0
  C  C133  1  0.92790000  0.14710000  0.29080000  1.0
  C  C134  1  0.92230000  0.21810000  0.53900000  1.0
  C  C135  1  0.33260000  0.67120000  0.55260000  1.0
  C  C136  1  0.29230000  0.80790000  0.01830000  1.0
  C  C137  1  0.84390000  0.82710000  0.13150000  1.0
  C  C138  1  0.03010000  0.39490000  0.74610000  1.0
  C  C139  1  0.83830000  0.16050000  0.55680000  1.0
  C  C140  1  0.88240000  0.22640000  0.88090000  1.0
  C  C141  1  0.93640000  0.02500000  0.17450000  1.0
  C  C142  1  0.50140000  0.86960000  0.58060000  1.0
  C  C143  1  0.14780000  0.55840000  0.88240000  1.0
  C  C144  1  0.68030000  0.08210000  0.73300000  1.0
  C  C145  1  0.87600000  0.84400000  0.08850000  1.0
  C  C146  1  0.73060000  0.28900000  0.78110000  1.0
  C  C147  1  0.57540000  0.95140000  0.60070000  1.0
  C  C148  1  0.20760000  0.63780000  0.90580000  1.0
  C  C149  1  0.21920000  0.38580000  0.54850000  1.0
  C  C150  1  0.14890000  0.32510000  0.57680000  1.0
  C  C151  1  0.91020000  0.19000000  0.64230000  1.0
  C  C152  1  0.58970000  0.86630000  0.57060000  1.0
  C  C153  1  0.08960000  0.55440000  0.95530000  1.0
  C  C154  1  0.69870000  0.16950000  0.80760000  1.0
  C  C155  1  0.83930000  0.96110000  0.97510000  1.0
  C  C156  1  0.74280000  0.27640000  0.74540000  1.0
  C  C157  1  0.99250000  0.24570000  0.62400000  1.0
  C  C158  1  0.10440000  0.50200000  0.59620000  1.0
  C  C159  1  0.11410000  0.49270000  0.64710000  1.0
  C  C160  1  0.03070000  0.47690000  0.93100000  1.0
  C  C161  1  0.29090000  0.42770000  0.41200000  1.0
  C  C162  1  0.23580000  0.35380000  0.38540000  1.0
  C  C163  1  0.68060000  0.03300000  0.39620000  1.0
  C  C164  1  0.07260000  0.25960000  0.83820000  1.0
  C  C165  1  0.52240000  0.94300000  0.39280000  1.0
  C  C166  1  0.20140000  0.42720000  0.82720000  1.0
  C  C167  1  0.29400000  0.58000000  0.00840000  1.0
  C  C168  1  0.36630000  0.82390000  0.44220000  1.0
  C  C169  1  0.92160000  0.08600000  0.79640000  1.0
  C  C170  1  0.12000000  0.21520000  0.73270000  1.0
  C  C171  1  0.13860000  0.20080000  0.69810000  1.0
  C  C172  1  0.19780000  0.42340000  0.77610000  1.0
  C  C173  1  0.66930000  0.97530000  0.43850000  1.0
  C  C174  1  0.85220000  0.16620000  0.10820000  1.0
  C  C175  1  0.13660000  0.34100000  0.75830000  1.0
  C  C176  1  0.62070000  0.82950000  0.88560000  1.0
  C  C177  1  0.00340000  0.33460000  0.10660000  1.0
  C  C178  1  0.02830000  0.15570000  0.73660000  1.0
  C  C179  1  0.53040000  0.99920000  0.11830000  1.0
  C  C180  1  0.82960000  0.07760000  0.44200000  1.0
  C  C181  1  0.61970000  0.87650000  0.01290000  1.0
  C  C182  1  0.99930000  0.17950000  0.46490000  1.0
  C  C183  1  0.06600000  0.12660000  0.66910000  1.0
  C  C184  1  0.20000000  0.67260000  0.46100000  1.0
  C  C185  1  0.06870000  0.25330000  0.79040000  1.0
  C  C186  1  0.30780000  0.53880000  0.89090000  1.0
  C  C187  1  0.13920000  0.34660000  0.85700000  1.0
  C  C188  1  0.54680000  0.00980000  0.28150000  1.0
  C  C189  1  0.52500000  0.99440000  0.22930000  1.0
  C  C190  1  0.74570000  0.00130000  0.46080000  1.0
  C  C191  1  0.79430000  0.20450000  0.15430000  1.0
  C  C192  1  0.95420000  0.07800000  0.70910000  1.0
  C  C193  1  0.35010000  0.65730000  0.84660000  1.0
  C  C194  1  0.17800000  0.49700000  0.06580000  1.0
  C  C195  1  0.59170000  0.99930000  0.31530000  1.0
  C  C196  1  0.82700000  0.26780000  0.22560000  1.0
  C  C197  1  0.29010000  0.58830000  0.81710000  1.0
  C  C198  1  0.88620000  0.25580000  0.16110000  1.0
  C  C199  1  0.62700000  0.98680000  0.29740000  1.0
  C  C200  1  0.75840000  0.92380000  0.84290000  1.0
  C  C201  1  0.27860000  0.78500000  0.50360000  1.0
  C  C202  1  0.76420000  0.20900000  0.18660000  1.0
  C  C203  1  0.94890000  0.31370000  0.20120000  1.0
  C  C204  1  0.90860000  0.02020000  0.82170000  1.0
  C  C205  1  0.05010000  0.33150000  0.09280000  1.0
  C  C206  1  0.76890000  0.99010000  0.81460000  1.0
  C  C207  1  0.73870000  0.99910000  0.07360000  1.0
  C  C208  1  0.55360000  0.97380000  0.21330000  1.0
  C  C209  1  0.02770000  0.06250000  0.59270000  1.0
  C  C210  1  0.89350000  0.02930000  0.46970000  1.0
  C  C211  1  0.84400000  0.13780000  0.40280000  1.0
  C  C212  1  0.82560000  0.93760000  0.84590000  1.0
  C  C213  1  0.39760000  0.72040000  0.02150000  1.0
  C  C214  1  0.85290000  0.07210000  0.79080000  1.0
  C  C215  1  0.78190000  0.07770000  0.03900000  1.0
  C  C216  1  0.32880000  0.66740000  0.05260000  1.0
  C  C217  1  0.19210000  0.70770000  0.51830000  1.0
  C  C218  1  0.17290000  0.15610000  0.63150000  1.0
  C  C219  1  0.60510000  0.96990000  0.24610000  1.0
  C  C220  1  0.83950000  0.16170000  0.05680000  1.0
  C  C221  1  0.77360000  0.11760000  0.38090000  1.0
  C  C222  1  0.97500000  0.06360000  0.67450000  1.0
  C  C223  1  0.13040000  0.49860000  0.08060000  1.0
  C  C224  1  0.44160000  0.85220000  0.38240000  1.0
  C  C225  1  0.91790000  0.31970000  0.23300000  1.0
  C  C226  1  0.15600000  0.12400000  0.58850000  1.0
  C  C227  1  0.71100000  0.26940000  0.28110000  1.0
  C  C228  1  0.04860000  0.42460000  0.10070000  1.0
  C  C229  1  0.36220000  0.79240000  0.40580000  1.0
  C  C230  1  0.61420000  0.78080000  0.04850000  1.0
  C  C231  1  0.67490000  0.85110000  0.07680000  1.0
  C  C232  1  0.81000000  0.08980000  0.14230000  1.0
  C  C233  1  0.13370000  0.41030000  0.07060000  1.0
  C  C234  1  0.44560000  0.91040000  0.45530000  1.0
  C  C235  1  0.83050000  0.30130000  0.30760000  1.0
  C  C236  1  0.03890000  0.16070000  0.47510000  1.0
  C  C237  1  0.72360000  0.25720000  0.24540000  1.0
  C  C238  1  0.75430000  0.00750000  0.12400000  1.0
  C  C239  1  0.49800000  0.89560000  0.09620000  1.0
  C  C240  1  0.50730000  0.88590000  0.14710000  1.0
  C  C241  1  0.52310000  0.96930000  0.43100000  1.0
  C  C242  1  0.57230000  0.70910000  0.91200000  1.0
  C  C243  1  0.64620000  0.76420000  0.88540000  1.0
  C  C244  1  0.03300000  0.68060000  0.10380000  1.0
  C  C245  1  0.25960000  0.07260000  0.66180000  1.0
  C  C246  1  0.94300000  0.52240000  0.10720000  1.0
  C  C247  1  0.42720000  0.20140000  0.67280000  1.0
  C  C248  1  0.58000000  0.29400000  0.49160000  1.0
  C  C249  1  0.82390000  0.36630000  0.05780000  1.0
  C  C250  1  0.08600000  0.92160000  0.70360000  1.0
  C  C251  1  0.21520000  0.12000000  0.76730000  1.0
  C  C252  1  0.20080000  0.13860000  0.80190000  1.0
  C  C253  1  0.42340000  0.19780000  0.72390000  1.0
  C  C254  1  0.97530000  0.66930000  0.06150000  1.0
  C  C255  1  0.16620000  0.85220000  0.39180000  1.0
  C  C256  1  0.34100000  0.13660000  0.74170000  1.0
  C  C257  1  0.82950000  0.62070000  0.61440000  1.0
  C  C258  1  0.33460000  0.00340000  0.39340000  1.0
  C  C259  1  0.15570000  0.02830000  0.76340000  1.0
  C  C260  1  0.99920000  0.53040000  0.38170000  1.0
  C  C261  1  0.07760000  0.82960000  0.05800000  1.0
  C  C262  1  0.87650000  0.61970000  0.48710000  1.0
  C  C263  1  0.17950000  0.99930000  0.03510000  1.0
  C  C264  1  0.12660000  0.06600000  0.83090000  1.0
  C  C265  1  0.67260000  0.20000000  0.03900000  1.0
  C  C266  1  0.25330000  0.06870000  0.70960000  1.0
  C  C267  1  0.53880000  0.30780000  0.60910000  1.0
  C  C268  1  0.34660000  0.13920000  0.64300000  1.0
  C  C269  1  0.00980000  0.54680000  0.21850000  1.0
  C  C270  1  0.99440000  0.52500000  0.27070000  1.0
  C  C271  1  0.00130000  0.74570000  0.03920000  1.0
  C  C272  1  0.20450000  0.79430000  0.34570000  1.0
  C  C273  1  0.07800000  0.95420000  0.79090000  1.0
  C  C274  1  0.65730000  0.35010000  0.65340000  1.0
  C  C275  1  0.49700000  0.17800000  0.43420000  1.0
  C  C276  1  0.99930000  0.59170000  0.18470000  1.0
  C  C277  1  0.26780000  0.82700000  0.27440000  1.0
  C  C278  1  0.58830000  0.29010000  0.68290000  1.0
  C  C279  1  0.25580000  0.88620000  0.33890000  1.0
  C  C280  1  0.98680000  0.62700000  0.20260000  1.0
  C  C281  1  0.92380000  0.75840000  0.65710000  1.0
  C  C282  1  0.78500000  0.27860000  0.99640000  1.0
  C  C283  1  0.20900000  0.76420000  0.31340000  1.0
  C  C284  1  0.31370000  0.94890000  0.29880000  1.0
  C  C285  1  0.02020000  0.90860000  0.67830000  1.0
  C  C286  1  0.33150000  0.05010000  0.40720000  1.0
  C  C287  1  0.99010000  0.76890000  0.68540000  1.0
  C  C288  1  0.99910000  0.73870000  0.42640000  1.0
  C  C289  1  0.97380000  0.55360000  0.28670000  1.0
  C  C290  1  0.06250000  0.02770000  0.90730000  1.0
  C  C291  1  0.02930000  0.89350000  0.03030000  1.0
  C  C292  1  0.13780000  0.84400000  0.09720000  1.0
  C  C293  1  0.93760000  0.82560000  0.65410000  1.0
  C  C294  1  0.72040000  0.39760000  0.47850000  1.0
  C  C295  1  0.07210000  0.85290000  0.70920000  1.0
  C  C296  1  0.07770000  0.78190000  0.46100000  1.0
  C  C297  1  0.66740000  0.32880000  0.44740000  1.0
  C  C298  1  0.70770000  0.19210000  0.98170000  1.0
  C  C299  1  0.15610000  0.17290000  0.86850000  1.0
  C  C300  1  0.96990000  0.60510000  0.25390000  1.0
  C  C301  1  0.16170000  0.83950000  0.44320000  1.0
  C  C302  1  0.11760000  0.77360000  0.11910000  1.0
  C  C303  1  0.06360000  0.97500000  0.82550000  1.0
  C  C304  1  0.49860000  0.13040000  0.41940000  1.0
  C  C305  1  0.85220000  0.44160000  0.11760000  1.0
  C  C306  1  0.31970000  0.91790000  0.26700000  1.0
  C  C307  1  0.12400000  0.15600000  0.91150000  1.0
  C  C308  1  0.26940000  0.71100000  0.21890000  1.0
  C  C309  1  0.42460000  0.04860000  0.39930000  1.0
  C  C310  1  0.79240000  0.36220000  0.09420000  1.0
  C  C311  1  0.78080000  0.61420000  0.45150000  1.0
  C  C312  1  0.85110000  0.67490000  0.42320000  1.0
  C  C313  1  0.08980000  0.81000000  0.35770000  1.0
  C  C314  1  0.41030000  0.13370000  0.42940000  1.0
  C  C315  1  0.91040000  0.44560000  0.04470000  1.0
  C  C316  1  0.30130000  0.83050000  0.19240000  1.0
  C  C317  1  0.16070000  0.03890000  0.02490000  1.0
  C  C318  1  0.25720000  0.72360000  0.25460000  1.0
  C  C319  1  0.00750000  0.75430000  0.37600000  1.0
  C  C320  1  0.89560000  0.49800000  0.40380000  1.0
  C  C321  1  0.88590000  0.50730000  0.35290000  1.0
  C  C322  1  0.96930000  0.52310000  0.06900000  1.0
  C  C323  1  0.70910000  0.57230000  0.58800000  1.0
  C  C324  1  0.76420000  0.64620000  0.61460000  1.0
  Se  Se1  1  0.34920000  0.23860000  0.47135000  1.0
  Se  Se2  1  0.23860000  0.34920000  0.02865000  1.0
  Se  Se3  1  0.65080000  0.76140000  0.52865000  1.0
  Se  Se4  1  0.76140000  0.65080000  0.97135000  1.0
  S  S1  1  0.47761000  0.10663000  0.11885000  1.0
  S  S2  1  0.10663000  0.47761000  0.38115000  1.0
  S  S3  1  0.52239000  0.89337000  0.88115000  1.0
  S  S4  1  0.89337000  0.52239000  0.61885000  1.0
  N  N1  1  0.09610000  0.90570000  0.54060000  1.0
  N  N2  1  0.71740000  0.23780000  0.53200000  1.0
  N  N3  1  0.73764000  0.48676000  0.15550000  1.0
  N  N4  1  0.73880000  0.42440000  0.95670000  1.0
  N  N5  1  0.46700000  0.04440000  0.83790000  1.0
  N  N6  1  0.63860000  0.37360000  0.10600000  1.0
  N  N7  1  0.86050000  0.36610000  0.50700000  1.0
  N  N8  1  0.42280000  0.20400000  0.99200000  1.0
  N  N9  1  0.62390000  0.33530000  0.00500000  1.0
  N  N10  1  0.91120000  0.88620000  0.36640000  1.0
  N  N11  1  0.99560000  0.83160000  0.22920000  1.0
  N  N12  1  0.48950000  0.03610000  0.92100000  1.0
  N  N13  1  0.31720000  0.08740000  0.94470000  1.0
  N  N14  1  0.39490000  0.99390000  0.63090000  1.0
  N  N15  1  0.32480000  0.16080000  0.13230000  1.0
  N  N16  1  0.93141000  0.93399000  0.43270000  1.0
  N  N17  1  0.02530000  0.93190000  0.52110000  1.0
  N  N18  1  0.08550000  0.74770000  0.87420000  1.0
  N  N19  1  0.44220000  0.24920000  0.08940000  1.0
  N  N20  1  0.20540000  0.72500000  0.74260000  1.0
  N  N21  1  0.22340000  0.70440000  0.67890000  1.0
  N  N22  1  0.90570000  0.09610000  0.95940000  1.0
  N  N23  1  0.23780000  0.71740000  0.96800000  1.0
  N  N24  1  0.48676000  0.73764000  0.34450000  1.0
  N  N25  1  0.42440000  0.73880000  0.54330000  1.0
  N  N26  1  0.04440000  0.46700000  0.66210000  1.0
  N  N27  1  0.37360000  0.63860000  0.39400000  1.0
  N  N28  1  0.36610000  0.86050000  0.99300000  1.0
  N  N29  1  0.20400000  0.42280000  0.50800000  1.0
  N  N30  1  0.33530000  0.62390000  0.49500000  1.0
  N  N31  1  0.88620000  0.91120000  0.13360000  1.0
  N  N32  1  0.83160000  0.99560000  0.27080000  1.0
  N  N33  1  0.03610000  0.48950000  0.57900000  1.0
  N  N34  1  0.08740000  0.31720000  0.55530000  1.0
  N  N35  1  0.99390000  0.39490000  0.86910000  1.0
  N  N36  1  0.16080000  0.32480000  0.36770000  1.0
  N  N37  1  0.93399000  0.93141000  0.06730000  1.0
  N  N38  1  0.93190000  0.02530000  0.97890000  1.0
  N  N39  1  0.74770000  0.08550000  0.62580000  1.0
  N  N40  1  0.24920000  0.44220000  0.41060000  1.0
  N  N41  1  0.72500000  0.20540000  0.75740000  1.0
  N  N42  1  0.70440000  0.22340000  0.82110000  1.0
  N  N43  1  0.90390000  0.09430000  0.45940000  1.0
  N  N44  1  0.28260000  0.76220000  0.46800000  1.0
  N  N45  1  0.26236000  0.51324000  0.84450000  1.0
  N  N46  1  0.26120000  0.57560000  0.04330000  1.0
  N  N47  1  0.53300000  0.95560000  0.16210000  1.0
  N  N48  1  0.36140000  0.62640000  0.89400000  1.0
  N  N49  1  0.13950000  0.63390000  0.49300000  1.0
  N  N50  1  0.57720000  0.79600000  0.00800000  1.0
  N  N51  1  0.37610000  0.66470000  0.99500000  1.0
  N  N52  1  0.08880000  0.11380000  0.63360000  1.0
  N  N53  1  0.00440000  0.16840000  0.77080000  1.0
  N  N54  1  0.51050000  0.96390000  0.07900000  1.0
  N  N55  1  0.68280000  0.91260000  0.05530000  1.0
  N  N56  1  0.60510000  0.00610000  0.36910000  1.0
  N  N57  1  0.67520000  0.83920000  0.86770000  1.0
  N  N58  1  0.06859000  0.06601000  0.56730000  1.0
  N  N59  1  0.97470000  0.06810000  0.47890000  1.0
  N  N60  1  0.91450000  0.25230000  0.12580000  1.0
  N  N61  1  0.55780000  0.75080000  0.91060000  1.0
  N  N62  1  0.79460000  0.27500000  0.25740000  1.0
  N  N63  1  0.77660000  0.29560000  0.32110000  1.0
  N  N64  1  0.09430000  0.90390000  0.04060000  1.0
  N  N65  1  0.76220000  0.28260000  0.03200000  1.0
  N  N66  1  0.51324000  0.26236000  0.65550000  1.0
  N  N67  1  0.57560000  0.26120000  0.45670000  1.0
  N  N68  1  0.95560000  0.53300000  0.33790000  1.0
  N  N69  1  0.62640000  0.36140000  0.60600000  1.0
  N  N70  1  0.63390000  0.13950000  0.00700000  1.0
  N  N71  1  0.79600000  0.57720000  0.49200000  1.0
  N  N72  1  0.66470000  0.37610000  0.50500000  1.0
  N  N73  1  0.11380000  0.08880000  0.86640000  1.0
  N  N74  1  0.16840000  0.00440000  0.72920000  1.0
  N  N75  1  0.96390000  0.51050000  0.42100000  1.0
  N  N76  1  0.91260000  0.68280000  0.44470000  1.0
  N  N77  1  0.00610000  0.60510000  0.13090000  1.0
  N  N78  1  0.83920000  0.67520000  0.63230000  1.0
  N  N79  1  0.06601000  0.06859000  0.93270000  1.0
  N  N80  1  0.06810000  0.97470000  0.02110000  1.0
  N  N81  1  0.25230000  0.91450000  0.37420000  1.0
  N  N82  1  0.75080000  0.55780000  0.58940000  1.0
  N  N83  1  0.27500000  0.79460000  0.24260000  1.0
  N  N84  1  0.29560000  0.77660000  0.17890000  1.0
  O  O1  1  0.49139000  0.17561000  0.08190000  1.0
  O  O2  1  0.57051000  0.15089000  0.13180000  1.0
  O  O3  1  0.41030000  0.01970000  0.09260000  1.0
  O  O4  1  0.56007000  0.97393000  0.99100000  1.0
  O  O5  1  0.87053000  0.88067000  0.53280000  1.0
  O  O6  1  0.56879000  0.40501000  0.00570000  1.0
  O  O7  1  0.43870000  0.08170000  0.16490000  1.0
  O  O8  1  0.17561000  0.49139000  0.41810000  1.0
  O  O9  1  0.15089000  0.57051000  0.36820000  1.0
  O  O10  1  0.01970000  0.41030000  0.40740000  1.0
  O  O11  1  0.97393000  0.56007000  0.50900000  1.0
  O  O12  1  0.88067000  0.87053000  0.96720000  1.0
  O  O13  1  0.40501000  0.56879000  0.49430000  1.0
  O  O14  1  0.08170000  0.43870000  0.33510000  1.0
  O  O15  1  0.50861000  0.82439000  0.91810000  1.0
  O  O16  1  0.42949000  0.84911000  0.86820000  1.0
  O  O17  1  0.58970000  0.98030000  0.90740000  1.0
  O  O18  1  0.43993000  0.02607000  0.00900000  1.0
  O  O19  1  0.12947000  0.11933000  0.46720000  1.0
  O  O20  1  0.43121000  0.59499000  0.99430000  1.0
  O  O21  1  0.56130000  0.91830000  0.83510000  1.0
  O  O22  1  0.82439000  0.50861000  0.58190000  1.0
  O  O23  1  0.84911000  0.42949000  0.63180000  1.0
  O  O24  1  0.98030000  0.58970000  0.59260000  1.0
  O  O25  1  0.02607000  0.43993000  0.49100000  1.0
  O  O26  1  0.11933000  0.12947000  0.03280000  1.0
  O  O27  1  0.59499000  0.43121000  0.50570000  1.0
  O  O28  1  0.91830000  0.56130000  0.66490000  1.0
  O  O29  1  0.28470000  0.19930000  0.51240000  1.0
  O  O30  1  0.27380000  0.14760000  0.43450000  1.0
  O  O31  1  0.42940000  0.25680000  0.50170000  1.0
  O  O32  1  0.39460000  0.34220000  0.43440000  1.0
  O  O33  1  0.19930000  0.28470000  0.98760000  1.0
  O  O34  1  0.14760000  0.27380000  0.06550000  1.0
  O  O35  1  0.25680000  0.42940000  0.99830000  1.0
  O  O36  1  0.34220000  0.39460000  0.06560000  1.0
  O  O37  1  0.71530000  0.80070000  0.48760000  1.0
  O  O38  1  0.72620000  0.85240000  0.56550000  1.0
  O  O39  1  0.57060000  0.74320000  0.49830000  1.0
  O  O40  1  0.60540000  0.65780000  0.56560000  1.0
  O  O41  1  0.80070000  0.71530000  0.01240000  1.0
  O  O42  1  0.85240000  0.72620000  0.93450000  1.0
  O  O43  1  0.74320000  0.57060000  0.00170000  1.0
  O  O44  1  0.65780000  0.60540000  0.93440000  1.0
