# generated using pymatgen
data_CdH96C82S2(NO2)8
_symmetry_space_group_name_H-M   'P 1'
_cell_length_a   10.64320000
_cell_length_b   13.38800000
_cell_length_c   23.81614989
_cell_angle_alpha   90.00000000
_cell_angle_beta   115.16209678
_cell_angle_gamma   90.00000000
_symmetry_Int_Tables_number   1
_chemical_formula_structural   CdH96C82S2(NO2)8
_chemical_formula_sum   'Cd2 H192 C164 S4 N16 O32'
_cell_volume   3071.56801267
_cell_formula_units_Z   2
loop_
 _symmetry_equiv_pos_site_id
 _symmetry_equiv_pos_as_xyz
  1  'x, y, z'
loop_
 _atom_site_type_symbol
 _atom_site_label
 _atom_site_symmetry_multiplicity
 _atom_site_fract_x
 _atom_site_fract_y
 _atom_site_fract_z
 _atom_site_occupancy
  Cd  Cd0  1  0.00000000  0.00000000  0.50000000  1
  Cd  Cd1  1  0.00000000  0.50000000  0.00000000  1
  H  H2  1  0.00968600  0.10845400  0.63037900  1
  H  H3  1  0.99031400  0.60845400  0.86962100  1
  H  H4  1  0.99031400  0.89154600  0.36962100  1
  H  H5  1  0.00968600  0.39154600  0.13037900  1
  H  H6  1  0.30749200  0.13732000  0.57665500  1
  H  H7  1  0.69250800  0.63732000  0.92334500  1
  H  H8  1  0.69250800  0.86268000  0.42334500  1
  H  H9  1  0.30749200  0.36268000  0.07665500  1
  H  H10  1  0.37067300  0.23855500  0.67004000  1
  H  H11  1  0.62932700  0.73855500  0.82996000  1
  H  H12  1  0.62932700  0.76144500  0.32996000  1
  H  H13  1  0.37067300  0.26144500  0.17004000  1
  H  H14  1  0.07239500  0.35339400  0.62485900  1
  H  H15  1  0.92760500  0.85339400  0.87514100  1
  H  H16  1  0.92760500  0.64660600  0.37514100  1
  H  H17  1  0.07239500  0.14660600  0.12485900  1
  H  H18  1  0.99359100  0.51283300  0.61956900  1
  H  H19  1  0.00640900  0.01283300  0.88043100  1
  H  H20  1  0.00640900  0.48716700  0.38043100  1
  H  H21  1  0.99359100  0.98716700  0.11956900  1
  H  H22  1  0.00694200  0.59383100  0.70857900  1
  H  H23  1  0.99305800  0.09383100  0.79142100  1
  H  H24  1  0.99305800  0.40616900  0.29142100  1
  H  H25  1  0.00694200  0.90616900  0.20857900  1
  H  H26  1  0.09397600  0.51494600  0.80147000  1
  H  H27  1  0.90602400  0.01494600  0.69853000  1
  H  H28  1  0.90602400  0.48505400  0.19853000  1
  H  H29  1  0.09397600  0.98505400  0.30147000  1
  H  H30  1  0.29386800  0.20637100  0.92599900  1
  H  H31  1  0.70613200  0.70637100  0.57400100  1
  H  H32  1  0.70613200  0.79362900  0.07400100  1
  H  H33  1  0.29386800  0.29362900  0.42599900  1
  H  H34  1  0.37005000  0.04682700  0.93062800  1
  H  H35  1  0.62995000  0.54682700  0.56937200  1
  H  H36  1  0.62995000  0.95317300  0.06937200  1
  H  H37  1  0.37005000  0.45317300  0.43062800  1
  H  H38  1  0.36723900  0.96832700  0.84230200  1
  H  H39  1  0.63276100  0.46832700  0.65769800  1
  H  H40  1  0.63276100  0.03167300  0.15769800  1
  H  H41  1  0.36723900  0.53167300  0.34230200  1
  H  H42  1  0.28536800  0.04926600  0.75014100  1
  H  H43  1  0.71463200  0.54926600  0.74985900  1
  H  H44  1  0.71463200  0.95073400  0.24985900  1
  H  H45  1  0.28536800  0.45073400  0.25014100  1
  H  H46  1  0.00538200  0.36853600  0.87892200  1
  H  H47  1  0.99461800  0.86853600  0.62107800  1
  H  H48  1  0.99461800  0.63146400  0.12107800  1
  H  H49  1  0.00538200  0.13146400  0.37892200  1
  H  H50  1  0.40219700  0.42926100  0.92554600  1
  H  H51  1  0.59780300  0.92926100  0.57445400  1
  H  H52  1  0.59780300  0.57073900  0.07445400  1
  H  H53  1  0.40219700  0.07073900  0.42554600  1
  H  H54  1  0.33174300  0.50758600  0.00075300  1
  H  H55  1  0.66825700  0.00758600  0.49924700  1
  H  H56  1  0.66825700  0.49241400  0.99924700  1
  H  H57  1  0.33174300  0.99241400  0.50075300  1
  H  H58  1  0.65490600  0.50451400  0.35263100  1
  H  H59  1  0.34509400  0.00451400  0.14736900  1
  H  H60  1  0.34509400  0.49548600  0.64736900  1
  H  H61  1  0.65490600  0.99548600  0.85263100  1
  H  H62  1  0.65104500  0.33017800  0.33269100  1
  H  H63  1  0.34895500  0.83017800  0.16730900  1
  H  H64  1  0.34895500  0.66982200  0.66730900  1
  H  H65  1  0.65104500  0.16982200  0.83269100  1
  H  H66  1  0.73785400  0.26775700  0.50037200  1
  H  H67  1  0.26214600  0.76775700  0.99962800  1
  H  H68  1  0.26214600  0.73224300  0.49962800  1
  H  H69  1  0.73785400  0.23224300  0.00037200  1
  H  H70  1  0.73452900  0.44373000  0.52498500  1
  H  H71  1  0.26547100  0.94373000  0.97501500  1
  H  H72  1  0.26547100  0.55627000  0.47501500  1
  H  H73  1  0.73452900  0.05627000  0.02498500  1
  H  H74  1  0.64624300  0.63953100  0.41719400  1
  H  H75  1  0.35375700  0.13953100  0.08280600  1
  H  H76  1  0.35375700  0.36046900  0.58280600  1
  H  H77  1  0.64624300  0.86046900  0.91719400  1
  H  H78  1  0.61900400  0.59709500  0.47237000  1
  H  H79  1  0.38099600  0.09709500  0.02763000  1
  H  H80  1  0.38099600  0.40290500  0.52763000  1
  H  H81  1  0.61900400  0.90290500  0.97237000  1
  H  H82  1  0.77079600  0.62203200  0.48206500  1
  H  H83  1  0.22920400  0.12203200  0.01793500  1
  H  H84  1  0.22920400  0.37796800  0.51793500  1
  H  H85  1  0.77079600  0.87796800  0.98206500  1
  H  H86  1  0.57264600  0.37279100  0.38277500  1
  H  H87  1  0.42735400  0.87279100  0.11722500  1
  H  H88  1  0.42735400  0.62720900  0.61722500  1
  H  H89  1  0.57264600  0.12720900  0.88277500  1
  H  H90  1  0.63315200  0.53435700  0.41960000  1
  H  H91  1  0.36684800  0.03435700  0.08040000  1
  H  H92  1  0.36684800  0.46564300  0.58040000  1
  H  H93  1  0.63315200  0.96564300  0.91960000  1
  H  H94  1  0.02550400  0.44474700  0.52143600  1
  H  H95  1  0.97449600  0.94474700  0.97856400  1
  H  H96  1  0.97449600  0.55525300  0.47856400  1
  H  H97  1  0.02550400  0.05525300  0.02143600  1
  H  H98  1  0.96500100  0.28318100  0.48461200  1
  H  H99  1  0.03499900  0.78318100  0.01538800  1
  H  H100  1  0.03499900  0.71681900  0.51538800  1
  H  H101  1  0.96500100  0.21681900  0.98461200  1
  H  H102  1  0.84974700  0.63779000  0.52806400  1
  H  H103  1  0.15025300  0.13779000  0.97193600  1
  H  H104  1  0.15025300  0.36221000  0.47193600  1
  H  H105  1  0.84974700  0.86221000  0.02806400  1
  H  H106  1  0.96602800  0.63573800  0.50412300  1
  H  H107  1  0.03397200  0.13573800  0.99587700  1
  H  H108  1  0.03397200  0.36426200  0.49587700  1
  H  H109  1  0.96602800  0.86426200  0.00412300  1
  H  H110  1  0.81351700  0.66439200  0.45877500  1
  H  H111  1  0.18648300  0.16439200  0.04122500  1
  H  H112  1  0.18648300  0.33560800  0.54122500  1
  H  H113  1  0.81351700  0.83560800  0.95877500  1
  H  H114  1  0.57236600  0.11964100  0.27497700  1
  H  H115  1  0.42763400  0.61964100  0.22502300  1
  H  H116  1  0.42763400  0.88035900  0.72502300  1
  H  H117  1  0.57236600  0.38035900  0.77497700  1
  H  H118  1  0.35777300  0.99973300  0.23556100  1
  H  H119  1  0.64222700  0.49973300  0.26443900  1
  H  H120  1  0.64222700  0.00026700  0.76443900  1
  H  H121  1  0.35777300  0.50026700  0.73556100  1
  H  H122  1  0.51076200  0.96711100  0.27756100  1
  H  H123  1  0.48923800  0.46711100  0.22243900  1
  H  H124  1  0.48923800  0.03288900  0.72243900  1
  H  H125  1  0.51076200  0.53288900  0.77756100  1
  H  H126  1  0.43109800  0.03659000  0.30448400  1
  H  H127  1  0.56890200  0.53659000  0.19551600  1
  H  H128  1  0.56890200  0.96341000  0.69551600  1
  H  H129  1  0.43109800  0.46341000  0.80448400  1
  H  H130  1  0.55144800  0.22807400  0.01501400  1
  H  H131  1  0.44855200  0.72807400  0.48498600  1
  H  H132  1  0.44855200  0.77192600  0.98498600  1
  H  H133  1  0.55144800  0.27192600  0.51501400  1
  H  H134  1  0.56945000  0.32738400  0.05256000  1
  H  H135  1  0.43055000  0.82738400  0.44744000  1
  H  H136  1  0.43055000  0.67261600  0.94744000  1
  H  H137  1  0.56945000  0.17261600  0.55256000  1
  H  H138  1  0.77393900  0.28768500  0.04733400  1
  H  H139  1  0.22606100  0.78768500  0.45266600  1
  H  H140  1  0.22606100  0.71231500  0.95266600  1
  H  H141  1  0.77393900  0.21231500  0.54733400  1
  H  H142  1  0.77645800  0.18318100  0.07775100  1
  H  H143  1  0.22354200  0.68318100  0.42224900  1
  H  H144  1  0.22354200  0.81681900  0.92224900  1
  H  H145  1  0.77645800  0.31681900  0.57775100  1
  H  H146  1  0.80704700  0.17685400  0.18357900  1
  H  H147  1  0.19295300  0.67685400  0.31642100  1
  H  H148  1  0.19295300  0.82314600  0.81642100  1
  H  H149  1  0.80704700  0.32314600  0.68357900  1
  H  H150  1  0.82377500  0.27712500  0.22019700  1
  H  H151  1  0.17622500  0.77712500  0.27980300  1
  H  H152  1  0.17622500  0.72287500  0.77980300  1
  H  H153  1  0.82377500  0.22287500  0.72019700  1
  H  H154  1  0.58473900  0.31968000  0.15681400  1
  H  H155  1  0.41526100  0.81968000  0.34318600  1
  H  H156  1  0.41526100  0.68032000  0.84318600  1
  H  H157  1  0.58473900  0.18032000  0.65681400  1
  H  H158  1  0.58737000  0.21256600  0.18478000  1
  H  H159  1  0.41263000  0.71256600  0.31522000  1
  H  H160  1  0.41263000  0.78743400  0.81522000  1
  H  H161  1  0.58737000  0.28743400  0.68478000  1
  H  H162  1  0.54925700  0.29214000  0.06344900  1
  H  H163  1  0.45074300  0.79214000  0.43655100  1
  H  H164  1  0.45074300  0.70786000  0.93655100  1
  H  H165  1  0.54925700  0.20786000  0.56344900  1
  H  H166  1  0.59616400  0.36941900  0.11809400  1
  H  H167  1  0.40383600  0.86941900  0.38190600  1
  H  H168  1  0.40383600  0.63058100  0.88190600  1
  H  H169  1  0.59616400  0.13058100  0.61809400  1
  H  H170  1  0.78092400  0.33621200  0.09273800  1
  H  H171  1  0.21907600  0.83621200  0.40726200  1
  H  H172  1  0.21907600  0.66378800  0.90726200  1
  H  H173  1  0.78092400  0.16378800  0.59273800  1
  H  H174  1  0.77015800  0.22182200  0.10370000  1
  H  H175  1  0.22984200  0.72182200  0.39630000  1
  H  H176  1  0.22984200  0.77817800  0.89630000  1
  H  H177  1  0.77015800  0.27817800  0.60370000  1
  H  H178  1  0.82752900  0.16641200  0.20732600  1
  H  H179  1  0.17247100  0.66641200  0.29267400  1
  H  H180  1  0.17247100  0.83358800  0.79267400  1
  H  H181  1  0.82752900  0.33358800  0.70732600  1
  H  H182  1  0.88116800  0.24884500  0.25924300  1
  H  H183  1  0.11883200  0.74884500  0.24075700  1
  H  H184  1  0.11883200  0.75115500  0.74075700  1
  H  H185  1  0.88116800  0.25115500  0.75924300  1
  H  H186  1  0.65217700  0.21456700  0.23503800  1
  H  H187  1  0.34782300  0.71456700  0.26496200  1
  H  H188  1  0.34782300  0.78543300  0.76496200  1
  H  H189  1  0.65217700  0.28543300  0.73503800  1
  H  H190  1  0.66586600  0.32517600  0.21667400  1
  H  H191  1  0.33413400  0.82517600  0.28332600  1
  H  H192  1  0.33413400  0.67482400  0.78332600  1
  H  H193  1  0.66586600  0.17482400  0.71667400  1
  C  C194  1  0.09170000  0.12770000  0.62840000  1
  C  C195  1  0.90830000  0.62770000  0.87160000  1
  C  C196  1  0.90830000  0.87230000  0.37160000  1
  C  C197  1  0.09170000  0.37230000  0.12840000  1
  C  C198  1  0.25500000  0.14420000  0.59920000  1
  C  C199  1  0.74500000  0.64420000  0.90080000  1
  C  C200  1  0.74500000  0.85580000  0.40080000  1
  C  C201  1  0.25500000  0.35580000  0.09920000  1
  C  C202  1  0.29100000  0.20000000  0.65090000  1
  C  C203  1  0.70900000  0.70000000  0.84910000  1
  C  C204  1  0.70900000  0.80000000  0.34910000  1
  C  C205  1  0.29100000  0.30000000  0.15090000  1
  C  C206  1  0.18237000  0.23410000  0.72337000  1
  C  C207  1  0.81763000  0.73410000  0.77663000  1
  C  C208  1  0.81763000  0.76590000  0.27663000  1
  C  C209  1  0.18237000  0.26590000  0.22337000  1
  C  C210  1  0.13142000  0.33170000  0.71752000  1
  C  C211  1  0.86858000  0.83170000  0.78248000  1
  C  C212  1  0.86858000  0.66830000  0.28248000  1
  C  C213  1  0.13142000  0.16830000  0.21752000  1
  C  C214  1  0.07670000  0.38440000  0.66060000  1
  C  C215  1  0.92330000  0.88440000  0.83940000  1
  C  C216  1  0.92330000  0.61560000  0.33940000  1
  C  C217  1  0.07670000  0.11560000  0.16060000  1
  C  C218  1  0.03040000  0.47950000  0.65740000  1
  C  C219  1  0.96960000  0.97950000  0.84260000  1
  C  C220  1  0.96960000  0.52050000  0.34260000  1
  C  C221  1  0.03040000  0.02050000  0.15740000  1
  C  C222  1  0.03790000  0.52830000  0.71130000  1
  C  C223  1  0.96210000  0.02830000  0.78870000  1
  C  C224  1  0.96210000  0.47170000  0.28870000  1
  C  C225  1  0.03790000  0.97170000  0.21130000  1
  C  C226  1  0.08930000  0.48120000  0.76650000  1
  C  C227  1  0.91070000  0.98120000  0.73350000  1
  C  C228  1  0.91070000  0.51880000  0.23350000  1
  C  C229  1  0.08930000  0.01880000  0.26650000  1
  C  C230  1  0.13641000  0.38050000  0.77211000  1
  C  C231  1  0.86359000  0.88050000  0.72789000  1
  C  C232  1  0.86359000  0.61950000  0.22789000  1
  C  C233  1  0.13641000  0.11950000  0.27211000  1
  C  C234  1  0.19039000  0.32790000  0.82789000  1
  C  C235  1  0.80961000  0.82790000  0.67211000  1
  C  C236  1  0.80961000  0.67210000  0.17211000  1
  C  C237  1  0.19039000  0.17210000  0.32789000  1
  C  C238  1  0.23850000  0.23030000  0.83350000  1
  C  C239  1  0.76150000  0.73030000  0.66650000  1
  C  C240  1  0.76150000  0.76970000  0.16650000  1
  C  C241  1  0.23850000  0.26970000  0.33350000  1
  C  C242  1  0.29100000  0.17610000  0.89030000  1
  C  C243  1  0.70900000  0.67610000  0.60970000  1
  C  C244  1  0.70900000  0.82390000  0.10970000  1
  C  C245  1  0.29100000  0.32390000  0.39030000  1
  C  C246  1  0.33690000  0.08120000  0.89320000  1
  C  C247  1  0.66310000  0.58120000  0.60680000  1
  C  C248  1  0.66310000  0.91880000  0.10680000  1
  C  C249  1  0.33690000  0.41880000  0.39320000  1
  C  C250  1  0.33470000  0.03340000  0.83960000  1
  C  C251  1  0.66530000  0.53340000  0.66040000  1
  C  C252  1  0.66530000  0.96660000  0.16040000  1
  C  C253  1  0.33470000  0.46660000  0.33960000  1
  C  C254  1  0.28590000  0.08160000  0.78480000  1
  C  C255  1  0.71410000  0.58160000  0.71520000  1
  C  C256  1  0.71410000  0.91840000  0.21520000  1
  C  C257  1  0.28590000  0.41840000  0.28480000  1
  C  C258  1  0.23480000  0.18170000  0.77900000  1
  C  C259  1  0.76520000  0.68170000  0.72100000  1
  C  C260  1  0.76520000  0.81830000  0.22100000  1
  C  C261  1  0.23480000  0.31830000  0.27900000  1
  C  C262  1  0.09484000  0.39350000  0.90004000  1
  C  C263  1  0.90516000  0.89350000  0.59996000  1
  C  C264  1  0.90516000  0.60650000  0.09996000  1
  C  C265  1  0.09484000  0.10650000  0.40004000  1
  C  C266  1  0.31466000  0.42670000  0.92536000  1
  C  C267  1  0.68534000  0.92670000  0.57464000  1
  C  C268  1  0.68534000  0.57330000  0.07464000  1
  C  C269  1  0.31466000  0.07330000  0.42536000  1
  C  C270  1  0.27490000  0.46960000  0.96670000  1
  C  C271  1  0.72510000  0.96960000  0.53330000  1
  C  C272  1  0.72510000  0.53040000  0.03330000  1
  C  C273  1  0.27490000  0.03040000  0.46670000  1
  C  C274  1  0.67860000  0.45780000  0.38440000  1
  C  C275  1  0.32140000  0.95780000  0.11560000  1
  C  C276  1  0.32140000  0.54220000  0.61560000  1
  C  C277  1  0.67860000  0.04220000  0.88440000  1
  C  C278  1  0.68710000  0.36000000  0.37160000  1
  C  C279  1  0.31290000  0.86000000  0.12840000  1
  C  C280  1  0.31290000  0.64000000  0.62840000  1
  C  C281  1  0.68710000  0.14000000  0.87160000  1
  C  C282  1  0.74260000  0.32060000  0.47600000  1
  C  C283  1  0.25740000  0.82060000  0.02400000  1
  C  C284  1  0.25740000  0.67940000  0.52400000  1
  C  C285  1  0.74260000  0.17940000  0.97600000  1
  C  C286  1  0.72780000  0.41970000  0.48720000  1
  C  C287  1  0.27220000  0.91970000  0.01280000  1
  C  C288  1  0.27220000  0.58030000  0.51280000  1
  C  C289  1  0.72780000  0.08030000  0.98720000  1
  C  C290  1  0.68220000  0.59730000  0.45320000  1
  C  C291  1  0.31780000  0.09730000  0.04680000  1
  C  C292  1  0.31780000  0.40270000  0.54680000  1
  C  C293  1  0.68220000  0.90270000  0.95320000  1
  C  C294  1  0.66340000  0.38720000  0.41060000  1
  C  C295  1  0.33660000  0.88720000  0.08940000  1
  C  C296  1  0.33660000  0.61280000  0.58940000  1
  C  C297  1  0.66340000  0.11280000  0.91060000  1
  C  C298  1  0.69960000  0.48400000  0.43260000  1
  C  C299  1  0.30040000  0.98400000  0.06740000  1
  C  C300  1  0.30040000  0.51600000  0.56740000  1
  C  C301  1  0.69960000  0.01600000  0.93260000  1
  C  C302  1  0.83540000  0.50560000  0.47420000  1
  C  C303  1  0.16460000  0.00560000  0.02580000  1
  C  C304  1  0.16460000  0.49440000  0.52580000  1
  C  C305  1  0.83540000  0.99440000  0.97420000  1
  C  C306  1  0.93470000  0.43030000  0.49360000  1
  C  C307  1  0.06530000  0.93030000  0.00640000  1
  C  C308  1  0.06530000  0.56970000  0.50640000  1
  C  C309  1  0.93470000  0.06970000  0.99360000  1
  C  C310  1  0.89850000  0.33350000  0.47160000  1
  C  C311  1  0.10150000  0.83350000  0.02840000  1
  C  C312  1  0.10150000  0.66650000  0.52840000  1
  C  C313  1  0.89850000  0.16650000  0.97160000  1
  C  C314  1  0.76280000  0.31200000  0.43000000  1
  C  C315  1  0.23720000  0.81200000  0.07000000  1
  C  C316  1  0.23720000  0.68800000  0.57000000  1
  C  C317  1  0.76280000  0.18800000  0.93000000  1
  C  C318  1  0.86970000  0.62300000  0.49330000  1
  C  C319  1  0.13030000  0.12300000  0.00670000  1
  C  C320  1  0.13030000  0.37700000  0.50670000  1
  C  C321  1  0.86970000  0.87700000  0.99330000  1
  C  C322  1  0.44450000  0.02040000  0.26810000  1
  C  C323  1  0.55550000  0.52040000  0.23190000  1
  C  C324  1  0.55550000  0.97960000  0.73190000  1
  C  C325  1  0.44450000  0.47960000  0.76810000  1
  C  C326  1  0.59730000  0.25780000  0.05590000  1
  C  C327  1  0.40270000  0.75780000  0.44410000  1
  C  C328  1  0.40270000  0.74220000  0.94410000  1
  C  C329  1  0.59730000  0.24220000  0.55590000  1
  C  C330  1  0.74860000  0.25240000  0.07660000  1
  C  C331  1  0.25140000  0.75240000  0.42340000  1
  C  C332  1  0.25140000  0.74760000  0.92340000  1
  C  C333  1  0.74860000  0.24760000  0.57660000  1
  C  C334  1  0.77800000  0.24620000  0.17970000  1
  C  C335  1  0.22200000  0.74620000  0.32030000  1
  C  C336  1  0.22200000  0.75380000  0.82030000  1
  C  C337  1  0.77800000  0.25380000  0.67970000  1
  C  C338  1  0.61470000  0.25110000  0.15730000  1
  C  C339  1  0.38530000  0.75110000  0.34270000  1
  C  C340  1  0.38530000  0.74890000  0.84270000  1
  C  C341  1  0.61470000  0.24890000  0.65730000  1
  C  C342  1  0.60920000  0.30170000  0.10710000  1
  C  C343  1  0.39080000  0.80170000  0.39290000  1
  C  C344  1  0.39080000  0.69830000  0.89290000  1
  C  C345  1  0.60920000  0.19830000  0.60710000  1
  C  C346  1  0.75960000  0.28790000  0.11780000  1
  C  C347  1  0.24040000  0.78790000  0.38220000  1
  C  C348  1  0.24040000  0.71210000  0.88220000  1
  C  C349  1  0.75960000  0.21210000  0.61780000  1
  C  C350  1  0.81800000  0.23590000  0.21640000  1
  C  C351  1  0.18200000  0.73590000  0.28360000  1
  C  C352  1  0.18200000  0.76410000  0.78360000  1
  C  C353  1  0.81800000  0.26410000  0.71640000  1
  C  C354  1  0.67390000  0.25580000  0.20690000  1
  C  C355  1  0.32610000  0.75580000  0.29310000  1
  C  C356  1  0.32610000  0.74420000  0.79310000  1
  C  C357  1  0.67390000  0.24420000  0.70690000  1
  S  S358  1  0.73665000  0.17380000  0.40802000  1
  S  S359  1  0.26335000  0.67380000  0.09198000  1
  S  S360  1  0.26335000  0.82620000  0.59198000  1
  S  S361  1  0.73665000  0.32620000  0.90802000  1
  N  N362  1  0.12876000  0.09910000  0.58496000  1
  N  N363  1  0.87124000  0.59910000  0.91504000  1
  N  N364  1  0.87124000  0.90090000  0.41504000  1
  N  N365  1  0.12876000  0.40090000  0.08496000  1
  N  N366  1  0.13704000  0.44840000  0.95054000  1
  N  N367  1  0.86296000  0.94840000  0.54946000  1
  N  N368  1  0.86296000  0.55160000  0.04946000  1
  N  N369  1  0.13704000  0.05160000  0.45054000  1
  N  N370  1  0.18699000  0.18840000  0.66969000  1
  N  N371  1  0.81301000  0.68840000  0.83031000  1
  N  N372  1  0.81301000  0.81160000  0.33031000  1
  N  N373  1  0.18699000  0.31160000  0.16969000  1
  N  N374  1  0.19916000  0.37840000  0.88306000  1
  N  N375  1  0.80084000  0.87840000  0.61694000  1
  N  N376  1  0.80084000  0.62160000  0.11694000  1
  N  N377  1  0.19916000  0.12160000  0.38306000  1
  O  O378  1  0.85220000  0.13230000  0.46050000  1
  O  O379  1  0.14780000  0.63230000  0.03950000  1
  O  O380  1  0.14780000  0.86770000  0.53950000  1
  O  O381  1  0.85220000  0.36770000  0.96050000  1
  O  O382  1  0.60620000  0.13730000  0.40450000  1
  O  O383  1  0.39380000  0.63730000  0.09550000  1
  O  O384  1  0.39380000  0.86270000  0.59550000  1
  O  O385  1  0.60620000  0.36270000  0.90450000  1
  O  O386  1  0.75250000  0.16250000  0.35090000  1
  O  O387  1  0.24750000  0.66250000  0.14910000  1
  O  O388  1  0.24750000  0.83750000  0.64910000  1
  O  O389  1  0.75250000  0.33750000  0.85090000  1
  O  O390  1  0.49460000  0.10560000  0.24870000  1
  O  O391  1  0.50540000  0.60560000  0.25130000  1
  O  O392  1  0.50540000  0.89440000  0.75130000  1
  O  O393  1  0.49460000  0.39440000  0.74870000  1
  O  O394  1  0.55440000  0.20970000  0.09570000  1
  O  O395  1  0.44560000  0.70970000  0.40430000  1
  O  O396  1  0.44560000  0.79030000  0.90430000  1
  O  O397  1  0.55440000  0.29030000  0.59570000  1
  O  O398  1  0.81950000  0.29590000  0.13700000  1
  O  O399  1  0.18050000  0.79590000  0.36300000  1
  O  O400  1  0.18050000  0.70410000  0.86300000  1
  O  O401  1  0.81950000  0.20410000  0.63700000  1
  O  O402  1  0.57170000  0.23510000  0.14190000  1
  O  O403  1  0.42830000  0.73510000  0.35810000  1
  O  O404  1  0.42830000  0.76490000  0.85810000  1
  O  O405  1  0.57170000  0.26490000  0.64190000  1
  O  O406  1  0.85080000  0.29840000  0.17670000  1
  O  O407  1  0.14920000  0.79840000  0.32330000  1
  O  O408  1  0.14920000  0.70160000  0.82330000  1
  O  O409  1  0.85080000  0.20160000  0.67670000  1
