# generated using pymatgen
data_ZnH36C42N8(ClO5)2
_symmetry_space_group_name_H-M   'P 1'
_cell_length_a   12.94341490
_cell_length_b   12.94341490
_cell_length_c   16.17230000
_cell_angle_alpha   84.71319093
_cell_angle_beta   95.28680907
_cell_angle_gamma   117.90600271
_symmetry_Int_Tables_number   1
_chemical_formula_structural   ZnH36C42N8(ClO5)2
_chemical_formula_sum   'Zn2 H72 C84 N16 Cl4 O20'
_cell_volume   2380.43457915
_cell_formula_units_Z   2
loop_
 _symmetry_equiv_pos_site_id
 _symmetry_equiv_pos_as_xyz
  1  'x, y, z'
loop_
 _atom_site_type_symbol
 _atom_site_label
 _atom_site_symmetry_multiplicity
 _atom_site_fract_x
 _atom_site_fract_y
 _atom_site_fract_z
 _atom_site_occupancy
  Zn  Zn0  1  0.10386000  0.10386000  0.25000000  1
  Zn  Zn1  1  0.89614000  0.89614000  0.75000000  1
  H  H2  1  0.33967200  0.08849200  0.25138500  1
  H  H3  1  0.08849200  0.33967200  0.24861500  1
  H  H4  1  0.66032800  0.91150800  0.74861500  1
  H  H5  1  0.91150800  0.66032800  0.75138500  1
  H  H6  1  0.87607800  0.13202800  0.24795300  1
  H  H7  1  0.13202800  0.87607800  0.25204700  1
  H  H8  1  0.12392200  0.86797200  0.75204700  1
  H  H9  1  0.86797200  0.12392200  0.74795300  1
  H  H10  1  0.65979400  0.90142000  0.56380500  1
  H  H11  1  0.90142000  0.65979400  0.93619500  1
  H  H12  1  0.34020600  0.09858000  0.43619500  1
  H  H13  1  0.09858000  0.34020600  0.06380500  1
  H  H14  1  0.30417000  0.93503600  0.10959000  1
  H  H15  1  0.93503600  0.30417000  0.39041000  1
  H  H16  1  0.69583000  0.06496400  0.89041000  1
  H  H17  1  0.06496400  0.69583000  0.60959000  1
  H  H18  1  0.38095900  0.22145500  0.01896600  1
  H  H19  1  0.22145500  0.38095900  0.48103400  1
  H  H20  1  0.61904100  0.77854500  0.98103400  1
  H  H21  1  0.77854500  0.61904100  0.51896600  1
  H  H22  1  0.20111000  0.20928200  0.06671600  1
  H  H23  1  0.20928200  0.20111000  0.43328400  1
  H  H24  1  0.79889000  0.79071800  0.93328400  1
  H  H25  1  0.79071800  0.79889000  0.56671600  1
  H  H26  1  0.63003400  0.87030200  0.12620800  1
  H  H27  1  0.87030200  0.63003400  0.37379200  1
  H  H28  1  0.36996600  0.12969800  0.87379200  1
  H  H29  1  0.12969800  0.36996600  0.62620800  1
  H  H30  1  0.97419800  0.01639200  0.07006800  1
  H  H31  1  0.01639200  0.97419800  0.42993200  1
  H  H32  1  0.02580200  0.98360800  0.92993200  1
  H  H33  1  0.98360800  0.02580200  0.57006800  1
  H  H34  1  0.88980400  0.30372200  0.14097700  1
  H  H35  1  0.30372200  0.88980400  0.35902300  1
  H  H36  1  0.11019600  0.69627800  0.85902300  1
  H  H37  1  0.69627800  0.11019600  0.64097700  1
  H  H38  1  0.79159100  0.01847300  0.02019500  1
  H  H39  1  0.01847300  0.79159100  0.47980500  1
  H  H40  1  0.20840900  0.98152700  0.97980500  1
  H  H41  1  0.98152700  0.20840900  0.52019500  1
  H  H42  1  0.28348000  0.75276200  0.09497700  1
  H  H43  1  0.75276200  0.28348000  0.40502300  1
  H  H44  1  0.71652000  0.24723800  0.90502300  1
  H  H45  1  0.24723800  0.71652000  0.59497700  1
  H  H46  1  0.56202300  0.35583700  0.16329700  1
  H  H47  1  0.35583700  0.56202300  0.33670300  1
  H  H48  1  0.43797700  0.64416300  0.83670300  1
  H  H49  1  0.64416300  0.43797700  0.66329700  1
  H  H50  1  0.90957200  0.48341800  0.16083900  1
  H  H51  1  0.48341800  0.90957200  0.33916100  1
  H  H52  1  0.09042800  0.51658200  0.83916100  1
  H  H53  1  0.51658200  0.09042800  0.66083900  1
  H  H54  1  0.44836000  0.72073400  0.10599300  1
  H  H55  1  0.72073400  0.44836000  0.39400700  1
  H  H56  1  0.55164000  0.27926600  0.89400700  1
  H  H57  1  0.27926600  0.55164000  0.60599300  1
  H  H58  1  0.74429800  0.50824000  0.17397400  1
  H  H59  1  0.50824000  0.74429800  0.32602600  1
  H  H60  1  0.25570200  0.49176000  0.82602600  1
  H  H61  1  0.49176000  0.25570200  0.67397400  1
  H  H62  1  0.46766300  0.83313100  0.63719100  1
  H  H63  1  0.83313100  0.46766300  0.86280900  1
  H  H64  1  0.53233700  0.16686900  0.36280900  1
  H  H65  1  0.16686900  0.53233700  0.13719100  1
  H  H66  1  0.49938200  0.90730600  0.55252200  1
  H  H67  1  0.90730600  0.49938200  0.94747800  1
  H  H68  1  0.50061800  0.09269400  0.44747800  1
  H  H69  1  0.09269400  0.50061800  0.05252200  1
  H  H70  1  0.47425200  0.77612400  0.55771500  1
  H  H71  1  0.77612400  0.47425200  0.94228500  1
  H  H72  1  0.52574800  0.22387600  0.44228500  1
  H  H73  1  0.22387600  0.52574800  0.05771500  1
  C  C74  1  0.32708000  0.12012000  0.19980000  1
  C  C75  1  0.12012000  0.32708000  0.30020000  1
  C  C76  1  0.67292000  0.87988000  0.80020000  1
  C  C77  1  0.87988000  0.67292000  0.69980000  1
  C  C78  1  0.69507000  0.09893000  0.13450000  1
  C  C79  1  0.09893000  0.69507000  0.36550000  1
  C  C80  1  0.30493000  0.90107000  0.86550000  1
  C  C81  1  0.90107000  0.30493000  0.63450000  1
  C  C82  1  0.87818000  0.10382000  0.19760000  1
  C  C83  1  0.10382000  0.87818000  0.30240000  1
  C  C84  1  0.12182000  0.89618000  0.80240000  1
  C  C85  1  0.89618000  0.12182000  0.69760000  1
  C  C86  1  0.48326000  0.02074000  0.12560000  1
  C  C87  1  0.02074000  0.48326000  0.37440000  1
  C  C88  1  0.51674000  0.97926000  0.87440000  1
  C  C89  1  0.97926000  0.51674000  0.62560000  1
  C  C90  1  0.58474000  0.00166000  0.12720000  1
  C  C91  1  0.00166000  0.58474000  0.37280000  1
  C  C92  1  0.41526000  0.99834000  0.87280000  1
  C  C93  1  0.99834000  0.41526000  0.62720000  1
  C  C94  1  0.71137000  0.21223000  0.14220000  1
  C  C95  1  0.21223000  0.71137000  0.35780000  1
  C  C96  1  0.28863000  0.78777000  0.85780000  1
  C  C97  1  0.78777000  0.28863000  0.64220000  1
  C  C98  1  0.50055000  0.13385000  0.13630000  1
  C  C99  1  0.13385000  0.50055000  0.36370000  1
  C  C100  1  0.49945000  0.86615000  0.86370000  1
  C  C101  1  0.86615000  0.49945000  0.63630000  1
  C  C102  1  0.60954000  0.22906000  0.14560000  1
  C  C103  1  0.22906000  0.60954000  0.35440000  1
  C  C104  1  0.39046000  0.77094000  0.85440000  1
  C  C105  1  0.77094000  0.39046000  0.64560000  1
  C  C106  1  0.37020000  0.92360000  0.11250000  1
  C  C107  1  0.92360000  0.37020000  0.38750000  1
  C  C108  1  0.62980000  0.07640000  0.88750000  1
  C  C109  1  0.07640000  0.62980000  0.61250000  1
  C  C110  1  0.35088000  0.19352000  0.07110000  1
  C  C111  1  0.19352000  0.35088000  0.42890000  1
  C  C112  1  0.64912000  0.80648000  0.92890000  1
  C  C113  1  0.80648000  0.64912000  0.57110000  1
  C  C114  1  0.25156000  0.18644000  0.09820000  1
  C  C115  1  0.18644000  0.25156000  0.40180000  1
  C  C116  1  0.74844000  0.81356000  0.90180000  1
  C  C117  1  0.81356000  0.74844000  0.59820000  1
  C  C118  1  0.56602000  0.88518000  0.12170000  1
  C  C119  1  0.88518000  0.56602000  0.37830000  1
  C  C120  1  0.43398000  0.11482000  0.87830000  1
  C  C121  1  0.11482000  0.43398000  0.62170000  1
  C  C122  1  0.93170000  0.04030000  0.09970000  1
  C  C123  1  0.04030000  0.93170000  0.40030000  1
  C  C124  1  0.06830000  0.95970000  0.90030000  1
  C  C125  1  0.95970000  0.06830000  0.59970000  1
  C  C126  1  0.82330000  0.31230000  0.14630000  1
  C  C127  1  0.31230000  0.82330000  0.35370000  1
  C  C128  1  0.17670000  0.68770000  0.85370000  1
  C  C129  1  0.68770000  0.17670000  0.64630000  1
  C  C130  1  0.83080000  0.04080000  0.07170000  1
  C  C131  1  0.04080000  0.83080000  0.42830000  1
  C  C132  1  0.16920000  0.95920000  0.92830000  1
  C  C133  1  0.95920000  0.16920000  0.57170000  1
  C  C134  1  0.35770000  0.81490000  0.10440000  1
  C  C135  1  0.81490000  0.35770000  0.39560000  1
  C  C136  1  0.64230000  0.18510000  0.89560000  1
  C  C137  1  0.18510000  0.64230000  0.60440000  1
  C  C138  1  0.62660000  0.34360000  0.15880000  1
  C  C139  1  0.34360000  0.62660000  0.34120000  1
  C  C140  1  0.37340000  0.65640000  0.84120000  1
  C  C141  1  0.65640000  0.37340000  0.65880000  1
  C  C142  1  0.83540000  0.41940000  0.15770000  1
  C  C143  1  0.41940000  0.83540000  0.34230000  1
  C  C144  1  0.16460000  0.58060000  0.84230000  1
  C  C145  1  0.58060000  0.16460000  0.65770000  1
  C  C146  1  0.45780000  0.79580000  0.11020000  1
  C  C147  1  0.79580000  0.45780000  0.38980000  1
  C  C148  1  0.54220000  0.20420000  0.88980000  1
  C  C149  1  0.20420000  0.54220000  0.61020000  1
  C  C150  1  0.73500000  0.43440000  0.16490000  1
  C  C151  1  0.43440000  0.73500000  0.33510000  1
  C  C152  1  0.26500000  0.56560000  0.83510000  1
  C  C153  1  0.56560000  0.26500000  0.66490000  1
  C  C154  1  0.50760000  0.84680000  0.58700000  1
  C  C155  1  0.84680000  0.50760000  0.91300000  1
  C  C156  1  0.49240000  0.15320000  0.41300000  1
  C  C157  1  0.15320000  0.49240000  0.08700000  1
  N  N158  1  0.79713000  0.08147000  0.13520000  1
  N  N159  1  0.08147000  0.79713000  0.36480000  1
  N  N160  1  0.20287000  0.91853000  0.86480000  1
  N  N161  1  0.91853000  0.20287000  0.63520000  1
  N  N162  1  0.96265000  0.08035000  0.17830000  1
  N  N163  1  0.08035000  0.96265000  0.32170000  1
  N  N164  1  0.03735000  0.91965000  0.82170000  1
  N  N165  1  0.91965000  0.03735000  0.67830000  1
  N  N166  1  0.23633000  0.14067000  0.17910000  1
  N  N167  1  0.14067000  0.23633000  0.32090000  1
  N  N168  1  0.76367000  0.85933000  0.82090000  1
  N  N169  1  0.85933000  0.76367000  0.67910000  1
  N  N170  1  0.39793000  0.15067000  0.13690000  1
  N  N171  1  0.15067000  0.39793000  0.36310000  1
  N  N172  1  0.60207000  0.84933000  0.86310000  1
  N  N173  1  0.84933000  0.60207000  0.63690000  1
  Cl  Cl174  1  0.75804000  0.00356000  0.40281000  1
  Cl  Cl175  1  0.00356000  0.75804000  0.09719000  1
  Cl  Cl176  1  0.24196000  0.99644000  0.59719000  1
  Cl  Cl177  1  0.99644000  0.24196000  0.90281000  1
  O  O178  1  0.88000000  0.07920000  0.39320000  1
  O  O179  1  0.07920000  0.88000000  0.10680000  1
  O  O180  1  0.12000000  0.92080000  0.60680000  1
  O  O181  1  0.92080000  0.12000000  0.89320000  1
  O  O182  1  0.74260000  0.89840000  0.44470000  1
  O  O183  1  0.89840000  0.74260000  0.05530000  1
  O  O184  1  0.25740000  0.10160000  0.55530000  1
  O  O185  1  0.10160000  0.25740000  0.94470000  1
  O  O186  1  0.62410000  0.88110000  0.60660000  1
  O  O187  1  0.88110000  0.62410000  0.89340000  1
  O  O188  1  0.37590000  0.11890000  0.39340000  1
  O  O189  1  0.11890000  0.37590000  0.10660000  1
  O  O190  1  0.69810000  0.98050000  0.32490000  1
  O  O191  1  0.98050000  0.69810000  0.17510000  1
  O  O192  1  0.30190000  0.01950000  0.67510000  1
  O  O193  1  0.01950000  0.30190000  0.82490000  1
  O  O194  1  0.71130000  0.05570000  0.45380000  1
  O  O195  1  0.05570000  0.71130000  0.04620000  1
  O  O196  1  0.28870000  0.94430000  0.54620000  1
  O  O197  1  0.94430000  0.28870000  0.95380000  1
